<?xml version="1.0" encoding="UTF-8"?>

<!-- generated on 2025-01-11 17:53:34.820715 by osmWebWizard.py v1_21_0+0000-d7b3b481c43
<configuration>
    <net-file value="C:\Users\82106\Sumo\2025-01-11-17-53-21\osm.net.xml.gz"/>
    <output-trip-file value="C:\Users\82106\Sumo\2025-01-11-17-53-21\osm.passenger.trips.xml"/>
    <route-file value="C:\Users\82106\Sumo\2025-01-11-17-53-21\osm.passenger.rou.xml"/>
    <prefix value="veh"/>
    <trip-attributes value="departLane=&quot;best&quot;"/>
    <fringe-start-attributes value="departSpeed=&quot;max&quot;"/>
    <vehicle-class value="passenger"/>
    <lanes value="True"/>
    <fringe-factor value="5"/>
    <allow-fringe.min-length value="1000.0"/>
    <via-edge-types value="highway.motorway,highway.motorway_link,highway.trunk_link,highway.primary_link,highway.secondary_link,highway.tertiary_link"/>
    <min-distance value="300.0"/>
    <min-distance.fringe value="10.0"/>
    <remove-loops value="True"/>
    <validate value="True"/>
    <insertion-density value="12.0"/>
</configuration>
-->

<!-- generated on 2025-01-11 17:53:34 by Eclipse SUMO duarouter Version 1.21.0
<duarouterConfiguration xmlns:xsi="http://www.w3.org/2001/XMLSchema-instance" xsi:noNamespaceSchemaLocation="http://sumo.dlr.de/xsd/duarouterConfiguration.xsd">

    <input>
        <net-file value="C:\Users\82106\Sumo\2025-01-11-17-53-21\osm.net.xml.gz"/>
        <route-files value="C:\Users\82106\Sumo\2025-01-11-17-53-21\osm.passenger.trips.xml"/>
    </input>

    <output>
        <output-file value="C:\Users\82106\Sumo\2025-01-11-17-53-21\osm.passenger.trips.xml.tmp"/>
        <alternatives-output value="NUL"/>
        <write-trips value="true"/>
    </output>

    <processing>
        <remove-loops value="true"/>
    </processing>

    <time>
        <begin value="0.0"/>
        <end value="3600.0"/>
    </time>

    <report>
        <no-warnings value="true"/>
        <ignore-errors value="true"/>
        <no-step-log value="true"/>
    </report>

</duarouterConfiguration>
-->

<routes xmlns:xsi="http://www.w3.org/2001/XMLSchema-instance" xsi:noNamespaceSchemaLocation="http://sumo.dlr.de/xsd/routes_file.xsd">
    <vType id="veh_passenger" vClass="passenger"/>
    <trip id="veh0" type="veh_passenger" depart="0.00" departLane="best" from="417990118#3" to="-182205763#1"/>
    <trip id="veh1" type="veh_passenger" depart="4.80" departLane="best" from="-522813048#0" to="-417991394#0"/>
    <trip id="veh2" type="veh_passenger" depart="9.61" departLane="best" departSpeed="max" from="521766192" to="417990117#0"/>
    <trip id="veh3" type="veh_passenger" depart="14.41" departLane="best" from="702378622#3" to="297294780#1"/>
    <trip id="veh5" type="veh_passenger" depart="24.01" departLane="best" from="-417991410#0" to="277249197#0"/>
    <trip id="veh6" type="veh_passenger" depart="28.82" departLane="best" from="-182205790#1" to="-417990111#1"/>
    <trip id="veh7" type="veh_passenger" depart="33.62" departLane="best" from="417990124#1" to="291715899"/>
    <trip id="veh8" type="veh_passenger" depart="38.42" departLane="best" from="417991411#1" to="316660888#1"/>
    <trip id="veh9" type="veh_passenger" depart="43.22" departLane="best" from="523141071" to="-175278890"/>
    <trip id="veh10" type="veh_passenger" depart="48.03" departLane="best" from="-522813048#0" to="417991395#1"/>
    <trip id="veh12" type="veh_passenger" depart="57.63" departLane="best" from="522941401#0" to="417991421#3"/>
    <trip id="veh13" type="veh_passenger" depart="62.44" departLane="best" from="297303011#1" to="798288396#0"/>
    <trip id="veh14" type="veh_passenger" depart="67.24" departLane="best" from="182205763#1" to="297294777"/>
    <trip id="veh15" type="veh_passenger" depart="72.04" departLane="best" from="522941404" to="37398844"/>
    <trip id="veh16" type="veh_passenger" depart="76.84" departLane="best" departSpeed="max" from="701271870" to="297303018#1"/>
    <trip id="veh17" type="veh_passenger" depart="81.65" departLane="best" from="472042759#1" to="-182205802#2"/>
    <trip id="veh18" type="veh_passenger" depart="86.45" departLane="best" departSpeed="max" from="-417991421#3" to="-522813042"/>
    <trip id="veh19" type="veh_passenger" depart="91.25" departLane="best" from="297302763#1" to="-417991399"/>
    <trip id="veh20" type="veh_passenger" depart="96.05" departLane="best" from="-316660884#0" to="522813029#2"/>
    <trip id="veh21" type="veh_passenger" depart="100.86" departLane="best" from="417990117#1" to="1054939514#1"/>
    <trip id="veh22" type="veh_passenger" depart="105.66" departLane="best" from="182205731" to="-417990118#2"/>
    <trip id="veh24" type="veh_passenger" depart="115.27" departLane="best" from="417990123#2" to="-369538606#1"/>
    <trip id="veh25" type="veh_passenger" depart="120.07" departLane="best" from="-417990111#0" to="417991421#3"/>
    <trip id="veh26" type="veh_passenger" depart="124.87" departLane="best" from="-417990105#0" to="182205750#1"/>
    <trip id="veh28" type="veh_passenger" depart="134.48" departLane="best" from="316660888#1" to="417990119#1"/>
    <trip id="veh29" type="veh_passenger" depart="139.28" departLane="best" from="-79471239#0" to="-494822053"/>
    <trip id="veh30" type="veh_passenger" depart="144.08" departLane="best" from="-417991405#0" to="79471044#3"/>
    <trip id="veh31" type="veh_passenger" depart="148.88" departLane="best" departSpeed="max" from="701271870" to="523141072#2"/>
    <trip id="veh32" type="veh_passenger" depart="153.69" departLane="best" from="760739032#3" to="277249184"/>
    <trip id="veh33" type="veh_passenger" depart="158.49" departLane="best" from="-522813046#2" to="-417991409"/>
    <trip id="veh34" type="veh_passenger" depart="163.29" departLane="best" from="-351446787#0" to="417991431#0"/>
    <trip id="veh35" type="veh_passenger" depart="168.09" departLane="best" from="37398844" to="71105478#0"/>
    <trip id="veh36" type="veh_passenger" depart="172.90" departLane="best" from="-297303016#0" to="-182205806#1"/>
    <trip id="veh37" type="veh_passenger" depart="177.70" departLane="best" from="332870299" to="37400312#1"/>
    <trip id="veh38" type="veh_passenger" depart="182.50" departLane="best" from="-522813046#1" to="202516760"/>
    <trip id="veh39" type="veh_passenger" depart="187.31" departLane="best" from="-282429545#1" to="-182205758#0"/>
    <trip id="veh41" type="veh_passenger" depart="196.91" departLane="best" from="79471244#0" to="-523141072#0"/>
    <trip id="veh42" type="veh_passenger" depart="201.71" departLane="best" from="417991411#1" to="282429544#3"/>
    <trip id="veh43" type="veh_passenger" depart="206.52" departLane="best" from="-522813046#3" to="37400377#6"/>
    <trip id="veh44" type="veh_passenger" depart="211.32" departLane="best" from="-351446787#1" to="202516760"/>
    <trip id="veh46" type="veh_passenger" depart="220.92" departLane="best" departSpeed="max" from="701271870" to="417991432"/>
    <trip id="veh47" type="veh_passenger" depart="225.73" departLane="best" from="282429544#3" to="-417990095#0"/>
    <trip id="veh48" type="veh_passenger" depart="230.53" departLane="best" from="760739032#2" to="523141075#1"/>
    <trip id="veh49" type="veh_passenger" depart="235.33" departLane="best" from="-702378626" to="37400377#14"/>
    <trip id="veh50" type="veh_passenger" depart="240.14" departLane="best" from="417990095#2" to="-37400312#0"/>
    <trip id="veh51" type="veh_passenger" depart="244.94" departLane="best" departSpeed="max" from="521766192" to="282429545#1"/>
    <trip id="veh52" type="veh_passenger" depart="249.74" departLane="best" from="522813029#4" to="282429543"/>
    <trip id="veh53" type="veh_passenger" depart="254.54" departLane="best" departSpeed="max" from="-141725854" to="71105478#1"/>
    <trip id="veh55" type="veh_passenger" depart="264.15" departLane="best" departSpeed="max" from="701271870" to="522941401#0"/>
    <trip id="veh56" type="veh_passenger" depart="268.95" departLane="best" from="-79470892#1" to="-182205816#3"/>
    <trip id="veh57" type="veh_passenger" depart="273.75" departLane="best" departSpeed="max" from="701271870" to="-79471239#1"/>
    <trip id="veh58" type="veh_passenger" depart="278.56" departLane="best" from="-297303011#1" to="277249191"/>
    <trip id="veh59" type="veh_passenger" depart="283.36" departLane="best" from="-292054608#0" to="472071195"/>
    <trip id="veh60" type="veh_passenger" depart="288.16" departLane="best" departSpeed="max" from="521766192" to="-351446787#0"/>
    <trip id="veh61" type="veh_passenger" depart="292.97" departLane="best" from="277547750#1" to="297294777"/>
    <trip id="veh62" type="veh_passenger" depart="297.77" departLane="best" from="-522813046#3" to="523141075#1"/>
    <trip id="veh63" type="veh_passenger" depart="302.57" departLane="best" departSpeed="max" from="220199779" to="-417990119#0"/>
    <trip id="veh64" type="veh_passenger" depart="307.37" departLane="best" from="297303013" to="417991421#3"/>
    <trip id="veh65" type="veh_passenger" depart="312.18" departLane="best" departSpeed="max" from="220199779" to="277249197#1"/>
    <trip id="veh66" type="veh_passenger" depart="316.98" departLane="best" from="-358378468#1" to="-417991394#1"/>
    <trip id="veh67" type="veh_passenger" depart="321.78" departLane="best" departSpeed="max" from="-417991421#3" to="-417990124#0"/>
    <trip id="veh68" type="veh_passenger" depart="326.58" departLane="best" departSpeed="max" from="-297294777" to="37400312#1"/>
    <trip id="veh69" type="veh_passenger" depart="331.39" departLane="best" departSpeed="max" from="-417991421#3" to="760739032#1"/>
    <trip id="veh70" type="veh_passenger" depart="336.19" departLane="best" departSpeed="max" from="701271870" to="282429542"/>
    <trip id="veh71" type="veh_passenger" depart="340.99" departLane="best" from="-417991431#1" to="417990110#3"/>
    <trip id="veh72" type="veh_passenger" depart="345.80" departLane="best" departSpeed="max" from="760739037" to="297303013"/>
    <trip id="veh74" type="veh_passenger" depart="355.40" departLane="best" from="522941401#0" to="417990105#1"/>
    <trip id="veh75" type="veh_passenger" depart="360.20" departLane="best" departSpeed="max" from="-297303018#1" to="202516760"/>
    <trip id="veh76" type="veh_passenger" depart="365.01" departLane="best" departSpeed="max" from="494822053" to="417990113"/>
    <trip id="veh77" type="veh_passenger" depart="369.81" departLane="best" from="-182205813#1" to="-79471242#1"/>
    <trip id="veh78" type="veh_passenger" depart="374.61" departLane="best" departSpeed="max" from="701271870" to="-417991410#1"/>
    <trip id="veh79" type="veh_passenger" depart="379.41" departLane="best" from="-417990123#1" to="202516760-AddedOnRampEdge"/>
    <trip id="veh81" type="veh_passenger" depart="389.02" departLane="best" departSpeed="max" from="-443047207#1" to="760739036"/>
    <trip id="veh82" type="veh_passenger" depart="393.82" departLane="best" departSpeed="max" from="220199779" to="523141072#0"/>
    <trip id="veh83" type="veh_passenger" depart="398.62" departLane="best" departSpeed="max" from="297303020" to="-182205806#4"/>
    <trip id="veh84" type="veh_passenger" depart="403.43" departLane="best" from="914639910" to="522941401#1"/>
    <trip id="veh86" type="veh_passenger" depart="413.03" departLane="best" from="523141075#1" to="-37400377#6"/>
    <trip id="veh87" type="veh_passenger" depart="417.84" departLane="best" departSpeed="max" from="282429540" to="-417990120"/>
    <trip id="veh88" type="veh_passenger" depart="422.64" departLane="best" from="182205763#1" to="829379108#2"/>
    <trip id="veh89" type="veh_passenger" depart="427.44" departLane="best" from="-522813046#3" to="521766191"/>
    <trip id="veh90" type="veh_passenger" depart="432.24" departLane="best" from="277249196#0" to="202516760"/>
    <trip id="veh91" type="veh_passenger" depart="437.05" departLane="best" from="79471237" to="886377753#0"/>
    <trip id="veh92" type="veh_passenger" depart="441.85" departLane="best" from="316660885#5" to="417991408#2"/>
    <trip id="veh93" type="veh_passenger" depart="446.65" departLane="best" from="-417990095#4" to="522813046#3"/>
    <trip id="veh94" type="veh_passenger" depart="451.45" departLane="best" from="79471242#7" to="297303018#1"/>
    <trip id="veh95" type="veh_passenger" depart="456.26" departLane="best" from="297303016#1" to="472042756"/>
    <trip id="veh96" type="veh_passenger" depart="461.06" departLane="best" from="-282429542" to="316660884#0"/>
    <trip id="veh97" type="veh_passenger" depart="465.86" departLane="best" departSpeed="max" from="282429545#0" to="522941404"/>
    <trip id="veh98" type="veh_passenger" depart="470.67" departLane="best" from="-297302764#0" to="-417990097#1"/>
    <trip id="veh99" type="veh_passenger" depart="475.47" departLane="best" from="37400377#11" to="417990115"/>
    <trip id="veh100" type="veh_passenger" depart="480.27" departLane="best" departSpeed="max" from="-417991430" to="316660885#1"/>
    <trip id="veh101" type="veh_passenger" depart="485.07" departLane="best" from="702378622#1" to="-417991408#2"/>
    <trip id="veh102" type="veh_passenger" depart="489.88" departLane="best" from="37400377#10" to="37398844"/>
    <trip id="veh105" type="veh_passenger" depart="504.28" departLane="best" from="-417991399" to="417991408#0"/>
    <trip id="veh106" type="veh_passenger" depart="509.09" departLane="best" from="-417991432" to="182205795#3"/>
    <trip id="veh107" type="veh_passenger" depart="513.89" departLane="best" from="417991408#1" to="-522813046#4"/>
    <trip id="veh109" type="veh_passenger" depart="523.50" departLane="best" departSpeed="max" from="-297294777" to="277249184"/>
    <trip id="veh110" type="veh_passenger" depart="528.30" departLane="best" departSpeed="max" from="-297294777" to="-417990120"/>
    <trip id="veh112" type="veh_passenger" depart="537.90" departLane="best" departSpeed="max" from="701271870" to="524280033#2"/>
    <trip id="veh113" type="veh_passenger" depart="542.71" departLane="best" from="182205727" to="-37400377#0"/>
    <trip id="veh114" type="veh_passenger" depart="547.51" departLane="best" from="522941405#1" to="417991398"/>
    <trip id="veh115" type="veh_passenger" depart="552.31" departLane="best" from="417990096#0" to="829379108#2"/>
    <trip id="veh116" type="veh_passenger" depart="557.11" departLane="best" from="417991395#0" to="-175278890"/>
    <trip id="veh117" type="veh_passenger" depart="561.92" departLane="best" from="522941401#2" to="-522813046#4"/>
    <trip id="veh118" type="veh_passenger" depart="566.72" departLane="best" from="-417991403#1" to="79470892#1"/>
    <trip id="veh119" type="veh_passenger" depart="571.52" departLane="best" from="-37400312#0" to="-297303020"/>
    <trip id="veh120" type="veh_passenger" depart="576.33" departLane="best" from="-316660888#2" to="297294780#0"/>
    <trip id="veh121" type="veh_passenger" depart="581.13" departLane="best" from="-522813047#3" to="358378468#0"/>
    <trip id="veh122" type="veh_passenger" depart="585.93" departLane="best" from="494822052#0" to="-417990116"/>
    <trip id="veh123" type="veh_passenger" depart="590.73" departLane="best" from="417990117#0" to="417991432"/>
    <trip id="veh124" type="veh_passenger" depart="595.54" departLane="best" from="282429541#0" to="760739032#1"/>
    <trip id="veh125" type="veh_passenger" depart="600.34" departLane="best" from="494822065" to="-297302763#0"/>
    <trip id="veh126" type="veh_passenger" depart="605.14" departLane="best" departSpeed="max" from="220199779" to="-522813029#1"/>
    <trip id="veh127" type="veh_passenger" depart="609.94" departLane="best" departSpeed="max" from="-141725854" to="494822052#2"/>
    <trip id="veh128" type="veh_passenger" depart="614.75" departLane="best" from="417990118#1" to="-417991421#2"/>
    <trip id="veh129" type="veh_passenger" depart="619.55" departLane="best" departSpeed="max" from="521766192" to="297294777"/>
    <trip id="veh130" type="veh_passenger" depart="624.35" departLane="best" departSpeed="max" from="220199779" to="-182192511#1"/>
    <trip id="veh132" type="veh_passenger" depart="633.96" departLane="best" departSpeed="max" from="760739032#0" to="292054608#0"/>
    <trip id="veh133" type="veh_passenger" depart="638.76" departLane="best" from="522941405#1" to="297303019"/>
    <trip id="veh134" type="veh_passenger" depart="643.56" departLane="best" from="-37400377#7" to="-351446787#0"/>
    <trip id="veh135" type="veh_passenger" depart="648.37" departLane="best" from="-79470892#1" to="71105478#1"/>
    <trip id="veh136" type="veh_passenger" depart="653.17" departLane="best" from="-522813046#3" to="-523141072#0"/>
    <trip id="veh137" type="veh_passenger" depart="657.97" departLane="best" from="-71105478#1" to="-417990118#3"/>
    <trip id="veh138" type="veh_passenger" depart="662.77" departLane="best" departSpeed="max" from="-443047207#1" to="-297303012"/>
    <trip id="veh140" type="veh_passenger" depart="672.38" departLane="best" from="182205816#1" to="37398844"/>
    <trip id="veh142" type="veh_passenger" depart="681.98" departLane="best" departSpeed="max" from="701271870" to="817822875"/>
    <trip id="veh145" type="veh_passenger" depart="696.39" departLane="best" from="523141071" to="443047208#1"/>
    <trip id="veh146" type="veh_passenger" depart="701.20" departLane="best" departSpeed="max" from="522813042" to="-297303016#1"/>
    <trip id="veh147" type="veh_passenger" depart="706.00" departLane="best" departSpeed="max" from="701271870" to="523141071"/>
    <trip id="veh148" type="veh_passenger" depart="710.80" departLane="best" from="-417991411#2" to="522813048#0"/>
    <trip id="veh149" type="veh_passenger" depart="715.60" departLane="best" from="277249194#2" to="-522813047#4"/>
    <trip id="veh150" type="veh_passenger" depart="720.41" departLane="best" from="182205781#3" to="-417990109#1"/>
    <trip id="veh151" type="veh_passenger" depart="725.21" departLane="best" from="-79471242#4" to="-522813029#3"/>
    <trip id="veh152" type="veh_passenger" depart="730.01" departLane="best" from="417990119#1" to="182205806#1"/>
    <trip id="veh154" type="veh_passenger" depart="739.62" departLane="best" from="-79471242#9" to="-417990095#0"/>
    <trip id="veh155" type="veh_passenger" depart="744.42" departLane="best" from="79471239#3" to="443047207#0"/>
    <trip id="veh156" type="veh_passenger" depart="749.22" departLane="best" from="332870298" to="202516760"/>
    <trip id="veh157" type="veh_passenger" depart="754.03" departLane="best" from="-37402629#1" to="277249197#1"/>
    <trip id="veh158" type="veh_passenger" depart="758.83" departLane="best" from="182205790#1" to="-297303017"/>
    <trip id="veh160" type="veh_passenger" depart="768.43" departLane="best" from="297303012" to="417991409"/>
    <trip id="veh161" type="veh_passenger" depart="773.24" departLane="best" departSpeed="max" from="521766192" to="417990111#1"/>
    <trip id="veh162" type="veh_passenger" depart="778.04" departLane="best" departSpeed="max" from="182192511#0" to="-282429542"/>
    <trip id="veh163" type="veh_passenger" depart="782.84" departLane="best" from="-417991403#1" to="79471044#3"/>
    <trip id="veh164" type="veh_passenger" depart="787.64" departLane="best" from="-79471238" to="523141071"/>
    <trip id="veh165" type="veh_passenger" depart="792.45" departLane="best" from="494822052#2" to="522813046#4"/>
    <trip id="veh166" type="veh_passenger" depart="797.25" departLane="best" from="-79471044#0" to="182205816#1"/>
    <trip id="veh167" type="veh_passenger" depart="802.05" departLane="best" from="182205813#0" to="-522813046#2"/>
    <trip id="veh168" type="veh_passenger" depart="806.86" departLane="best" from="-370040772#0" to="202516760"/>
    <trip id="veh170" type="veh_passenger" depart="816.46" departLane="best" departSpeed="max" from="760739032#0" to="370040772#3"/>
    <trip id="veh171" type="veh_passenger" depart="821.26" departLane="best" from="-71105478#1" to="297294777"/>
    <trip id="veh172" type="veh_passenger" depart="826.07" departLane="best" departSpeed="max" from="-141725854" to="-522813042"/>
    <trip id="veh173" type="veh_passenger" depart="830.87" departLane="best" departSpeed="max" from="220199779" to="297303018#1"/>
    <trip id="veh174" type="veh_passenger" depart="835.67" departLane="best" from="417991395#1" to="277249191"/>
    <trip id="veh175" type="veh_passenger" depart="840.47" departLane="best" departSpeed="max" from="220199779" to="-417990120"/>
    <trip id="veh177" type="veh_passenger" depart="850.08" departLane="best" from="-522813046#3" to="-37400377#9"/>
    <trip id="veh178" type="veh_passenger" depart="854.88" departLane="best" from="-297303011#0" to="277249197#1"/>
    <trip id="veh180" type="veh_passenger" depart="864.49" departLane="best" from="417991408#2" to="-417991394#1"/>
    <trip id="veh181" type="veh_passenger" depart="869.29" departLane="best" from="-417991395#1" to="-182205763#0"/>
    <trip id="veh182" type="veh_passenger" depart="874.09" departLane="best" from="-443047207#0" to="277249191"/>
    <trip id="veh183" type="veh_passenger" depart="878.90" departLane="best" from="523141075#1" to="-282429543"/>
    <trip id="veh184" type="veh_passenger" depart="883.70" departLane="best" from="202516759" to="37400312#1"/>
    <trip id="veh185" type="veh_passenger" depart="888.50" departLane="best" from="282429542" to="-417991408#0"/>
    <trip id="veh186" type="veh_passenger" depart="893.30" departLane="best" from="417991395#2" to="-175278890"/>
    <trip id="veh187" type="veh_passenger" depart="898.11" departLane="best" from="-316660888#2" to="202516760"/>
    <trip id="veh188" type="veh_passenger" depart="902.91" departLane="best" from="-291715898#3" to="-182205806#3"/>
    <trip id="veh189" type="veh_passenger" depart="907.71" departLane="best" departSpeed="max" from="-443047207#1" to="522941402"/>
    <trip id="veh190" type="veh_passenger" depart="912.51" departLane="best" from="277249194#0" to="522813046#1"/>
    <trip id="veh191" type="veh_passenger" depart="917.32" departLane="best" from="417991405#1" to="829379108#2"/>
    <trip id="veh192" type="veh_passenger" depart="922.12" departLane="best" from="37400377#11" to="79471239#4"/>
    <trip id="veh193" type="veh_passenger" depart="926.92" departLane="best" from="494822052#2" to="277249196#1"/>
    <trip id="veh194" type="veh_passenger" depart="931.73" departLane="best" from="522941404" to="297294777"/>
    <trip id="veh195" type="veh_passenger" depart="936.53" departLane="best" from="70998381" to="443047207#1"/>
    <trip id="veh196" type="veh_passenger" depart="941.33" departLane="best" from="277547750#0" to="-417991421#0"/>
    <trip id="veh197" type="veh_passenger" depart="946.13" departLane="best" departSpeed="max" from="-443047207#1" to="37400377#13"/>
    <trip id="veh198" type="veh_passenger" depart="950.94" departLane="best" departSpeed="max" from="521766192" to="282429539"/>
    <trip id="veh199" type="veh_passenger" depart="955.74" departLane="best" from="417990110#3" to="-494822055#1"/>
    <trip id="veh200" type="veh_passenger" depart="960.54" departLane="best" from="-297294780#1" to="-522813042"/>
    <trip id="veh201" type="veh_passenger" depart="965.34" departLane="best" from="-522813047#2" to="702378623#1"/>
    <trip id="veh202" type="veh_passenger" depart="970.15" departLane="best" departSpeed="max" from="-417991421#3" to="417990124#2"/>
    <trip id="veh203" type="veh_passenger" depart="974.95" departLane="best" from="472042760" to="-282429539"/>
    <trip id="veh204" type="veh_passenger" depart="979.75" departLane="best" from="182205816#3" to="291715898#2"/>
    <trip id="veh207" type="veh_passenger" depart="994.16" departLane="best" from="37398844" to="417991394#0"/>
    <trip id="veh208" type="veh_passenger" depart="998.96" departLane="best" from="182205781#1" to="-175278890"/>
    <trip id="veh209" type="veh_passenger" depart="1003.77" departLane="best" departSpeed="max" from="1262567083" to="472042759#0"/>
    <trip id="veh211" type="veh_passenger" depart="1013.37" departLane="best" departSpeed="max" from="297303020" to="351446787#8"/>
    <trip id="veh212" type="veh_passenger" depart="1018.17" departLane="best" from="-417991411#1" to="-417990123#2"/>
    <trip id="veh213" type="veh_passenger" depart="1022.98" departLane="best" departSpeed="max" from="220199779" to="-182205781#2"/>
    <trip id="veh214" type="veh_passenger" depart="1027.78" departLane="best" from="182205815#0" to="-37400377#3"/>
    <trip id="veh215" type="veh_passenger" depart="1032.58" departLane="best" from="277249195" to="-351446787#0"/>
    <trip id="veh216" type="veh_passenger" depart="1037.39" departLane="best" from="-417990109#1" to="-182205781#0"/>
    <trip id="veh217" type="veh_passenger" depart="1042.19" departLane="best" departSpeed="max" from="182205802#0" to="297302766#1"/>
    <trip id="veh218" type="veh_passenger" depart="1046.99" departLane="best" from="-182205790#1" to="-37400377#8"/>
    <trip id="veh219" type="veh_passenger" depart="1051.79" departLane="best" departSpeed="max" from="-37400312#1" to="277249191"/>
    <trip id="veh220" type="veh_passenger" depart="1056.60" departLane="best" from="-282429539" to="182205750#1"/>
    <trip id="veh221" type="veh_passenger" depart="1061.40" departLane="best" from="-417991405#1" to="79471044#0"/>
    <trip id="veh222" type="veh_passenger" depart="1066.20" departLane="best" departSpeed="max" from="521766192" to="522941401#1"/>
    <trip id="veh223" type="veh_passenger" depart="1071.00" departLane="best" from="-443047208#1" to="291715898#3"/>
    <trip id="veh224" type="veh_passenger" depart="1075.81" departLane="best" from="522813047#3" to="282429545#1"/>
    <trip id="veh225" type="veh_passenger" depart="1080.61" departLane="best" from="914639910" to="-79471673"/>
    <trip id="veh226" type="veh_passenger" depart="1085.41" departLane="best" from="417991394#0" to="472042759#0"/>
    <trip id="veh227" type="veh_passenger" depart="1090.21" departLane="best" from="369538606#3" to="417990111#0"/>
    <trip id="veh228" type="veh_passenger" depart="1095.02" departLane="best" from="472042758" to="494822052#0"/>
    <trip id="veh229" type="veh_passenger" depart="1099.82" departLane="best" from="-417990109#1" to="369538606#0"/>
    <trip id="veh230" type="veh_passenger" depart="1104.62" departLane="best" departSpeed="max" from="521766192" to="-297303020"/>
    <trip id="veh231" type="veh_passenger" depart="1109.43" departLane="best" from="522941401#3" to="79471683"/>
    <trip id="veh232" type="veh_passenger" depart="1114.23" departLane="best" from="-316660889#1" to="-182205763#1"/>
    <trip id="veh233" type="veh_passenger" depart="1119.03" departLane="best" from="494822052#0" to="-282429545#0"/>
    <trip id="veh234" type="veh_passenger" depart="1123.83" departLane="best" from="-443047207#0" to="37400312#0"/>
    <trip id="veh235" type="veh_passenger" depart="1128.64" departLane="best" from="-316660884#1" to="494822052#2"/>
    <trip id="veh236" type="veh_passenger" depart="1133.44" departLane="best" from="-358378468#1" to="829379108#1"/>
    <trip id="veh237" type="veh_passenger" depart="1138.24" departLane="best" departSpeed="max" from="522813036#0" to="-79471244#2"/>
    <trip id="veh238" type="veh_passenger" depart="1143.04" departLane="best" departSpeed="max" from="220199779" to="148660868#0"/>
    <trip id="veh239" type="veh_passenger" depart="1147.85" departLane="best" departSpeed="max" from="282429545#0" to="-79471242#4"/>
    <trip id="veh240" type="veh_passenger" depart="1152.65" departLane="best" from="523141075#1" to="522813048#1"/>
    <trip id="veh241" type="veh_passenger" depart="1157.45" departLane="best" from="-316660888#1" to="-79471244#2"/>
    <trip id="veh242" type="veh_passenger" depart="1162.26" departLane="best" from="417990117#1" to="522941401#0"/>
    <trip id="veh243" type="veh_passenger" depart="1167.06" departLane="best" from="472071195" to="202516760"/>
    <trip id="veh244" type="veh_passenger" depart="1171.86" departLane="best" from="494822065" to="79471683"/>
    <trip id="veh245" type="veh_passenger" depart="1176.66" departLane="best" from="-522813047#1" to="522813046#4"/>
    <trip id="veh246" type="veh_passenger" depart="1181.47" departLane="best" from="297303012" to="277249191"/>
    <trip id="veh247" type="veh_passenger" depart="1186.27" departLane="best" departSpeed="max" from="220199779" to="417991421#3"/>
    <trip id="veh248" type="veh_passenger" depart="1191.07" departLane="best" from="-522813046#4" to="522941404"/>
    <trip id="veh249" type="veh_passenger" depart="1195.87" departLane="best" from="522941404" to="297294780#0"/>
    <trip id="veh250" type="veh_passenger" depart="1200.68" departLane="best" departSpeed="max" from="701271870" to="-417991408#0"/>
    <trip id="veh251" type="veh_passenger" depart="1205.48" departLane="best" from="277249194#4" to="-369538606#3"/>
    <trip id="veh252" type="veh_passenger" depart="1210.28" departLane="best" from="523141075#1" to="-417990096#0"/>
    <trip id="veh254" type="veh_passenger" depart="1219.89" departLane="best" from="472042759#0" to="-522813029#1"/>
    <trip id="veh255" type="veh_passenger" depart="1224.69" departLane="best" from="-182205731" to="79471239#2"/>
    <trip id="veh256" type="veh_passenger" depart="1229.49" departLane="best" from="-297303011#1" to="417991410#0"/>
    <trip id="veh257" type="veh_passenger" depart="1234.30" departLane="best" from="282429541#0" to="472042760"/>
    <trip id="veh258" type="veh_passenger" depart="1239.10" departLane="best" from="-443047207#0" to="-37402629#0"/>
    <trip id="veh259" type="veh_passenger" depart="1243.90" departLane="best" from="282429541#1" to="521766191"/>
    <trip id="veh260" type="veh_passenger" depart="1248.70" departLane="best" from="297303017" to="-417990124#1"/>
    <trip id="veh261" type="veh_passenger" depart="1253.51" departLane="best" from="-443047207#1" to="-522813047#4"/>