<?xml version="1.0" encoding="UTF-8"?>

<!-- generated on 2025-01-18 18:03:26 by Eclipse SUMO netedit Version 1.21.0
<neteditConfiguration xmlns:xsi="http://www.w3.org/2001/XMLSchema-instance" xsi:noNamespaceSchemaLocation="http://sumo.dlr.de/xsd/neteditConfiguration.xsd">

    <input>
        <additional-files value="C:\Users\82106\Desktop\new_file\project\genuine - 복사본\osm_stops.add.xml"/>
        <route-files value="C:\Users\82106\Desktop\new_file\project\genuine - 복사본\osm_pt.rou.xml"/>
        <sumo-net-file value="C:\Users\82106\Desktop\new_file\project\genuine - 복사본\osm.net.xml"/>
    </input>

    <output>
        <output-file value="C:\Users\82106\Desktop\new_file\project\genuine - 복사본\osm.net.xml"/>
        <output.street-names value="true"/>
    </output>

    <processing>
        <geometry.min-radius.fix.railways value="false"/>
        <geometry.max-grade.fix value="false"/>
        <offset.disable-normalization value="true"/>
        <lefthand value="0"/>
    </processing>

    <junctions>
        <no-internal-links value="false"/>
        <no-turnarounds value="true"/>
        <junctions.corner-detail value="5"/>
        <junctions.limit-turn-speed value="5.50"/>
        <rectangular-lane-cut value="0"/>
    </junctions>

    <pedestrian>
        <walkingareas value="1"/>
    </pedestrian>

</neteditConfiguration>
-->

<net version="1.20" junctionCornerDetail="5" walkingareas="true" limitTurnSpeed="5.50" xmlns:xsi="http://www.w3.org/2001/XMLSchema-instance" xsi:noNamespaceSchemaLocation="http://sumo.dlr.de/xsd/net_file.xsd">

    <location netOffset="-325840.22,-4147900.61" convBoundary="0.00,0.00,1402.80,1369.88" origBoundary="127.030667,37.461821,127.046348,37.473977" projParameter="+proj=utm +zone=52 +ellps=WGS84 +datum=WGS84 +units=m +no_defs"/>

    <type id="highway.cycleway" priority="1" numLanes="1" speed="5.56" allow="bicycle" oneway="0" width="2.00"/>
    <type id="highway.footway" priority="1" numLanes="1" speed="2.78" allow="pedestrian" oneway="1" width="2.00"/>
    <type id="highway.motorway" priority="14" numLanes="2" speed="27.78" allow="private emergency authority army vip passenger hov taxi bus coach delivery truck trailer motorcycle evehicle custom1 custom2" oneway="1"/>
    <type id="highway.motorway_link" priority="9" numLanes="1" speed="16.67" allow="private emergency authority army vip passenger hov taxi bus coach delivery truck trailer motorcycle evehicle custom1 custom2" oneway="1"/>
    <type id="highway.path" priority="1" numLanes="1" speed="5.56" allow="pedestrian bicycle" oneway="0" width="2.00"/>
    <type id="highway.pedestrian" priority="1" numLanes="1" speed="2.78" allow="pedestrian" oneway="1" width="2.00"/>
    <type id="highway.primary" priority="12" numLanes="2" speed="13.89" disallow="pedestrian tram rail_urban rail rail_electric rail_fast ship container cable_car subway aircraft wheelchair scooter drone" oneway="0" sidewalkWidth="3.00"/>
    <type id="highway.primary_link" priority="7" numLanes="1" speed="13.89" disallow="pedestrian tram rail_urban rail rail_electric rail_fast ship container cable_car subway aircraft wheelchair scooter drone" oneway="0" sidewalkWidth="3.00"/>
    <type id="highway.residential" priority="3" numLanes="1" speed="13.89" disallow="pedestrian tram rail_urban rail rail_electric rail_fast ship container cable_car subway aircraft wheelchair scooter drone" oneway="0" sidewalkWidth="2.00"/>
    <type id="highway.secondary" priority="11" numLanes="1" speed="13.89" disallow="pedestrian tram rail_urban rail rail_electric rail_fast ship container cable_car subway aircraft wheelchair scooter drone" oneway="0" sidewalkWidth="3.00"/>
    <type id="highway.service" priority="1" numLanes="1" speed="5.56" allow="pedestrian delivery bicycle" oneway="0"/>
    <type id="highway.steps" priority="1" numLanes="1" speed="1.39" allow="pedestrian" oneway="1" width="2.00"/>
    <type id="highway.tertiary" priority="10" numLanes="1" speed="13.89" disallow="pedestrian tram rail_urban rail rail_electric rail_fast ship container cable_car subway aircraft wheelchair scooter drone" oneway="0" sidewalkWidth="3.00"/>
    <type id="highway.trunk" priority="13" numLanes="2" speed="13.89" disallow="pedestrian bicycle tram rail_urban rail rail_electric rail_fast ship container cable_car subway aircraft wheelchair scooter drone" oneway="0"/>
    <type id="highway.trunk_link" priority="8" numLanes="1" speed="13.89" disallow="pedestrian bicycle tram rail_urban rail rail_electric rail_fast ship container cable_car subway aircraft wheelchair scooter drone" oneway="0"/>
    <type id="railway.rail" priority="20" numLanes="1" speed="44.44" allow="rail" oneway="1"/>

    <edge id=":10007712602_0" function="internal">
        <lane id=":10007712602_0_0" index="0" allow="bicycle" speed="5.56" length="41.40" width="2.00" shape="661.49,897.70 662.79,882.32 662.88,877.20 661.75,882.34 659.40,897.74"/>
    </edge>
    <edge id=":10007712602_1" function="internal">
        <lane id=":10007712602_1_0" index="0" allow="bicycle" speed="5.56" length="30.80" width="2.00" shape="661.49,897.70 661.50,891.49 661.10,882.30 660.71,873.12 660.72,866.91"/>
    </edge>
    <edge id=":10007712602_2" function="internal">
        <lane id=":10007712602_2_0" index="0" allow="bicycle" speed="2.91" length="3.00" width="2.00" shape="661.49,897.70 661.89,896.86 662.36,896.53 662.91,896.71 663.53,897.40"/>
    </edge>
    <edge id=":10007712602_3" function="internal">
        <lane id=":10007712602_3_0" index="0" allow="bicycle" speed="5.56" length="30.32" width="2.00" shape="662.71,867.10 662.71,873.23 663.12,882.25 663.53,891.26 663.53,897.40"/>
    </edge>
    <edge id=":10007712602_4" function="internal">
        <lane id=":10007712602_4_0" index="0" allow="bicycle" speed="5.56" length="30.82" width="2.00" shape="662.71,867.10 659.40,897.74"/>
    </edge>
    <edge id=":10007712602_5" function="internal">
        <lane id=":10007712602_5_0" index="0" allow="bicycle" speed="2.89" length="2.92" width="2.00" shape="662.71,867.10 662.14,867.80 661.62,868.00 661.14,867.71 660.72,866.91"/>
    </edge>
    <edge id=":10007712602_6" function="internal">
        <lane id=":10007712602_6_0" index="0" allow="bicycle" speed="5.56" length="30.82" width="2.00" shape="657.41,897.56 660.72,866.91"/>
    </edge>
    <edge id=":10007712602_7" function="internal">
        <lane id=":10007712602_7_0" index="0" allow="bicycle" speed="3.83" length="6.12" width="2.00" shape="657.41,897.56 663.53,897.40"/>
    </edge>
    <edge id=":10007712602_8" function="internal">
        <lane id=":10007712602_8_0" index="0" allow="bicycle" speed="2.89" length="2.92" width="2.00" shape="657.41,897.56 657.98,896.86 658.50,896.65 658.97,896.95 659.40,897.74"/>
    </edge>
    <edge id=":10007712605_0" function="internal">
        <lane id=":10007712605_0_0" index="0" allow="bicycle" speed="5.56" length="0.41" width="2.00" shape="632.38,1295.96 632.26,1295.99 632.18,1296.01 632.09,1296.02 631.97,1296.03"/>
    </edge>
    <edge id=":10007712605_1" function="internal">
        <lane id=":10007712605_1_0" index="0" allow="bicycle" speed="5.56" length="0.14" width="2.00" shape="631.79,1294.04 631.84,1294.03 631.86,1294.03 631.89,1294.02 631.93,1294.01"/>
    </edge>
    <edge id=":10206893823_0" function="internal">
        <lane id=":10206893823_0_0" index="0" disallow="pedestrian tram rail_urban rail rail_electric rail_fast ship container cable_car subway aircraft wheelchair scooter drone" speed="13.89" length="5.00" shape="759.05,935.13 757.70,939.94"/>
        <lane id=":10206893823_0_1" index="1" disallow="pedestrian tram rail_urban rail rail_electric rail_fast ship container cable_car subway aircraft wheelchair scooter drone" speed="13.89" length="5.00" shape="755.97,934.27 754.62,939.08"/>
        <lane id=":10206893823_0_2" index="2" disallow="pedestrian tram rail_urban rail rail_electric rail_fast ship container cable_car subway aircraft wheelchair scooter drone" speed="13.89" length="5.00" shape="752.89,933.40 751.54,938.22"/>
        <lane id=":10206893823_0_3" index="3" disallow="pedestrian tram rail_urban rail rail_electric rail_fast ship container cable_car subway aircraft wheelchair scooter drone" speed="13.89" length="5.00" shape="749.81,932.54 748.46,937.36"/>
    </edge>
    <edge id=":10605860005_0" function="internal">
        <lane id=":10605860005_0_0" index="0" allow="private emergency authority army vip passenger hov taxi bus coach delivery truck trailer motorcycle evehicle custom1 custom2" speed="26.39" length="0.30" shape="789.31,253.10 789.11,253.38"/>
        <lane id=":10605860005_0_1" index="1" allow="private emergency authority army vip passenger hov taxi bus coach delivery truck trailer motorcycle evehicle custom1 custom2" speed="26.39" length="0.30" shape="786.69,251.26 786.51,251.52"/>
        <lane id=":10605860005_0_2" index="2" allow="private emergency authority army vip passenger hov taxi bus coach delivery truck trailer motorcycle evehicle custom1 custom2" speed="26.39" length="0.30" shape="784.08,249.42 783.90,249.66"/>
        <lane id=":10605860005_0_3" index="3" allow="private emergency authority army vip passenger hov taxi bus coach delivery truck trailer motorcycle evehicle custom1 custom2" speed="26.39" length="0.30" shape="781.46,247.58 781.30,247.80"/>
        <lane id=":10605860005_0_4" index="4" allow="private emergency authority army vip passenger hov taxi bus coach delivery truck trailer motorcycle evehicle custom1 custom2" speed="26.39" length="0.30" shape="778.84,245.74 778.70,245.94"/>
    </edge>
    <edge id=":10713354151_w0" function="walkingarea">
        <lane id=":10713354151_w0_0" index="0" allow="pedestrian" speed="2.78" length="2.48" width="2.00" shape="325.64,100.12 325.47,100.19 325.61,96.31 324.08,97.60 324.78,98.45 325.00,98.77 325.19,99.11 325.39,99.54"/>
    </edge>
    <edge id=":10722537234_w0" function="walkingarea">
        <lane id=":10722537234_w0_0" index="0" allow="pedestrian" speed="2.78" length="3.85" width="2.00" shape="323.64,360.64 323.62,358.64 321.99,357.15 320.00,357.28 320.12,362.13 322.12,362.15"/>
    </edge>
    <edge id=":10747478859_w0" function="walkingarea">
        <lane id=":10747478859_w0_0" index="0" allow="pedestrian" speed="2.78" length="1.44" width="2.00" shape="349.66,254.19 350.84,252.58 348.74,250.93 347.45,252.46"/>
    </edge>
    <edge id=":10747478860_w0" function="walkingarea">
        <lane id=":10747478860_w0_0" index="0" allow="pedestrian" speed="2.78" length="1.66" width="2.00" shape="355.63,258.83 356.90,257.28 354.56,255.40 353.32,256.97"/>
    </edge>
    <edge id=":10747478861_0" function="internal">
        <lane id=":10747478861_0_0" index="0" disallow="pedestrian tram rail_urban rail rail_electric rail_fast ship container cable_car subway aircraft wheelchair scooter drone" speed="13.89" length="5.21" shape="354.99,253.81 351.71,257.87"/>
    </edge>
    <edge id=":10747478861_1" function="internal">
        <lane id=":10747478861_1_0" index="0" disallow="pedestrian tram rail_urban rail rail_electric rail_fast ship container cable_car subway aircraft wheelchair scooter drone" speed="13.89" length="5.18" shape="349.23,255.84 352.49,251.81"/>
    </edge>
    <edge id=":10747478861_c0" function="crossing" crossingEdges="-37400377#6 37400377#6">
        <lane id=":10747478861_c0_0" index="0" allow="pedestrian" speed="2.78" length="6.40" width="4.00" shape="349.99,252.37 354.98,256.37" outlineShape="351.24,250.81 356.23,254.81 353.73,257.93 348.74,253.93"/>
    </edge>
    <edge id=":10747478861_w0" function="walkingarea">
        <lane id=":10747478861_w0_0" index="0" allow="pedestrian" speed="2.78" length="0.53" width="4.00" shape="354.20,257.66 355.44,256.10 356.23,254.81 353.73,257.93"/>
    </edge>
    <edge id=":10747478861_w1" function="walkingarea">
        <lane id=":10747478861_w1_0" index="0" allow="pedestrian" speed="2.78" length="0.73" width="4.00" shape="348.74,253.93 351.24,250.81 349.95,251.93 348.77,253.55"/>
    </edge>
    <edge id=":10747478862_w0" function="walkingarea">
        <lane id=":10747478862_w0_0" index="0" allow="pedestrian" speed="2.78" length="4.03" width="2.00" shape="361.64,259.27 360.11,257.98 359.44,258.51 359.09,258.60 358.73,258.57 358.35,258.43 357.97,258.16 356.70,259.71 357.23,260.37 357.32,260.71 357.30,261.07 357.15,261.43 356.89,261.81 358.42,263.10"/>
    </edge>
    <edge id=":10828950513_0" function="internal">
        <lane id=":10828950513_0_0" index="0" allow="private emergency authority army vip passenger hov taxi bus coach delivery truck trailer motorcycle evehicle custom1 custom2" speed="15.28" length="22.88" shape="863.16,260.31 860.68,256.80 857.62,252.45 853.69,247.64 848.63,242.73"/>
    </edge>
    <edge id=":10828950513_1" function="internal">
        <lane id=":10828950513_1_0" index="0" disallow="pedestrian tram rail_urban rail rail_electric rail_fast ship container cable_car subway aircraft wheelchair scooter drone" speed="13.89" length="22.89" shape="866.10,257.52 848.63,242.73"/>
        <lane id=":10828950513_1_1" index="1" disallow="pedestrian tram rail_urban rail rail_electric rail_fast ship container cable_car subway aircraft wheelchair scooter drone" speed="13.89" length="22.89" shape="868.16,255.08 850.69,240.29"/>
    </edge>
    <edge id=":10864183564_0" function="internal">
        <lane id=":10864183564_0_0" index="0" disallow="pedestrian tram rail_urban rail rail_electric rail_fast ship container cable_car subway aircraft wheelchair scooter drone" speed="13.89" length="10.37" shape="325.37,106.89 321.70,97.20"/>
    </edge>
    <edge id=":10864183564_1" function="internal">
        <lane id=":10864183564_1_0" index="0" disallow="pedestrian tram rail_urban rail rail_electric rail_fast ship container cable_car subway aircraft wheelchair scooter drone" speed="13.89" length="10.11" shape="324.78,96.35 325.66,99.20 326.43,101.12 327.27,103.01 328.38,105.79"/>
    </edge>
    <edge id=":10864183564_c0" function="crossing" crossingEdges="-702378623#1">
        <lane id=":10864183564_c0_0" index="0" allow="pedestrian" speed="2.78" length="3.20" width="4.00" shape="329.19,103.36 326.19,104.46" outlineShape="329.97,105.20 326.97,106.31 325.50,102.59 327.56,101.83 327.14,101.21 328.67,99.92 326.32,95.93 326.93,97.96 327.45,99.44 327.95,100.63 328.49,101.81 329.11,103.26"/>
    </edge>
    <edge id=":10864183564_c1" function="crossing" crossingEdges="-702378623#2">
        <lane id=":10864183564_c1_0" index="0" allow="pedestrian" speed="2.78" length="3.20" width="4.00" shape="323.77,98.70 326.85,97.85" outlineShape="323.24,96.77 326.32,95.93 328.42,99.50 326.34,95.95 327.38,99.78 324.30,100.63 323.24,96.77 319.34,94.60 317.41,95.14 323.38,99.90"/>
    </edge>
    <edge id=":10864183564_w0" function="walkingarea">
        <lane id=":10864183564_w0_0" index="0" allow="pedestrian" speed="2.78" length="2.00" width="4.00" shape="326.03,106.65 327.91,105.96 326.88,106.34 325.50,102.59"/>
    </edge>
    <edge id=":10864183564_w1" function="walkingarea">
        <lane id=":10864183564_w1_0" index="0" allow="pedestrian" speed="2.78" length="3.99" width="4.00" shape="329.88,105.24 327.14,101.21 328.67,99.92 326.32,95.93 326.93,97.96 327.45,99.44 327.95,100.63 328.49,101.81 329.11,103.26"/>
    </edge>
    <edge id=":10864183564_w2" function="walkingarea">
        <lane id=":10864183564_w2_0" index="0" allow="pedestrian" speed="2.78" length="6.61" width="4.00" shape="324.30,100.63 323.24,96.77 319.34,94.60 317.41,95.14"/>
    </edge>
    <edge id=":10925732892_0" function="internal">
        <lane id=":10925732892_0_0" index="0" disallow="pedestrian tram rail_urban rail rail_electric rail_fast ship container cable_car subway aircraft wheelchair scooter drone" speed="13.89" length="1.09" shape="302.48,37.74 302.85,38.77"/>
    </edge>
    <edge id=":10925732892_1" function="internal">
        <lane id=":10925732892_1_0" index="0" disallow="pedestrian tram rail_urban rail rail_electric rail_fast ship container cable_car subway aircraft wheelchair scooter drone" speed="13.89" length="0.72" shape="305.51,37.00 305.34,36.30"/>
    </edge>
    <edge id=":10939483798_w0" function="walkingarea">
        <lane id=":10939483798_w0_0" index="0" allow="pedestrian" speed="2.78" length="2.33" width="2.00" shape="372.47,217.90 370.93,216.62 370.34,217.10 370.08,217.13 369.84,217.02 369.63,216.77 369.44,216.37 367.57,217.08 367.48,220.62 368.96,221.97"/>
    </edge>
    <edge id=":11028856891_w0" function="walkingarea">
        <lane id=":11028856891_w0_0" index="0" allow="pedestrian" speed="2.78" length="4.24" width="2.00" shape="86.13,729.38 87.84,728.33 85.41,723.96 83.63,724.88 83.85,725.64 83.77,725.92 83.58,726.14 83.26,726.30 82.83,726.39 83.07,728.38 84.42,728.36 84.97,728.49 85.44,728.70 85.83,728.99"/>
    </edge>
    <edge id=":11028856896_w0" function="walkingarea">
        <lane id=":11028856896_w0_0" index="0" allow="pedestrian" speed="2.78" length="4.07" width="2.00" shape="135.98,810.48 137.05,808.79 135.57,807.83 135.06,807.47 134.57,807.09 133.99,806.62 133.21,805.97 131.93,807.51 132.46,808.16 132.53,808.50 132.49,808.83 132.32,809.18 132.03,809.53 133.44,810.94 134.29,810.33 134.71,810.19 135.13,810.17 135.55,810.27"/>
    </edge>
    <edge id=":11028856898_w0" function="walkingarea">
        <lane id=":11028856898_w0_0" index="0" allow="pedestrian" speed="2.78" length="4.28" width="2.00" shape="172.99,833.93 174.05,832.23 169.68,829.50 168.61,831.19 169.27,831.89 169.47,832.37 169.57,832.93 169.59,833.58 169.51,834.31 171.48,834.62 171.76,833.89 171.98,833.71 172.26,833.66 172.60,833.73"/>
    </edge>
    <edge id=":11028856901_w0" function="walkingarea">
        <lane id=":11028856901_w0_0" index="0" allow="pedestrian" speed="2.78" length="3.84" width="2.00" shape="117.74,922.47 119.72,922.17 119.73,921.18 119.87,920.69 120.08,920.19 120.37,919.70 120.75,919.20 119.22,917.91 118.55,918.45 118.19,918.56 117.81,918.56 117.42,918.44 117.02,918.22 115.89,919.87 116.82,920.65 117.17,921.07 117.43,921.51 117.63,921.98"/>
    </edge>
    <edge id=":11028899226_w0" function="walkingarea">
        <lane id=":11028899226_w0_0" index="0" allow="pedestrian" speed="2.78" length="4.14" width="2.00" shape="260.35,1091.53 260.42,1089.53 259.46,1089.28 259.00,1089.01 258.56,1088.63 258.14,1088.15 257.73,1087.57 256.04,1088.63 256.32,1089.39 256.28,1089.70 256.11,1089.97 255.82,1090.20 255.41,1090.38 256.04,1092.28 257.60,1091.76 258.15,1091.61 258.72,1091.53 259.42,1091.51"/>
    </edge>
    <edge id=":11028899233_w0" function="walkingarea">
        <lane id=":11028899233_w0_0" index="0" allow="pedestrian" speed="2.78" length="6.33" width="2.00" shape="484.46,962.44 484.16,960.46 483.89,959.80 483.03,957.95 480.53,959.59 479.67,959.97 479.09,960.07 478.77,959.86 478.71,959.37 476.73,959.13 476.54,960.89 476.44,961.52 476.26,962.11 475.94,962.78 475.43,963.64 477.12,964.71 478.30,963.89 479.36,963.51 480.74,963.14 482.44,962.78"/>
    </edge>
    <edge id=":11028899234_w0" function="walkingarea">
        <lane id=":11028899234_w0_0" index="0" allow="pedestrian" speed="2.78" length="4.29" width="2.00" shape="498.46,945.04 498.29,943.04 493.18,943.34 493.27,945.34 494.04,945.46 494.25,945.65 494.35,945.91 494.34,946.25 494.21,946.68 496.07,947.41 496.73,946.15 497.11,945.69 497.53,945.36 497.98,945.14"/>
    </edge>
    <edge id=":11028899235_w0" function="walkingarea">
        <lane id=":11028899235_w0_0" index="0" allow="pedestrian" speed="2.78" length="4.47" width="2.00" shape="514.41,942.86 513.58,941.04 512.62,941.16 512.11,941.00 511.58,940.69 511.02,940.23 510.44,939.62 508.93,940.93 509.31,941.57 509.29,941.81 509.13,941.99 508.84,942.12 508.41,942.19 508.58,944.18 510.81,944.00 511.60,943.89 512.36,943.70 513.25,943.37"/>
    </edge>
    <edge id=":11028899240_w0" function="walkingarea">
        <lane id=":11028899240_w0_0" index="0" allow="pedestrian" speed="2.78" length="5.29" width="4.00" shape="457.91,1059.36 459.91,1059.29 460.11,1057.05 460.43,1056.03 460.89,1055.08 461.49,1054.19 462.24,1053.38 460.86,1051.93 460.18,1052.36 459.87,1052.37 459.58,1052.26 459.32,1052.01 459.07,1051.64 455.54,1053.52 456.79,1055.57 457.24,1056.30 457.57,1057.07 457.80,1058.03"/>
    </edge>
    <edge id=":11028899243_w0" function="walkingarea">
        <lane id=":11028899243_w0_0" index="0" allow="pedestrian" speed="2.78" length="4.20" width="2.00" shape="398.51,1154.47 399.40,1152.68 397.96,1151.98 397.46,1151.69 397.02,1151.34 396.56,1150.85 396.00,1150.14 394.39,1151.33 395.10,1152.56 395.21,1153.07 395.20,1153.61 395.12,1154.25 395.02,1155.08 397.01,1155.29 397.25,1154.53 397.46,1154.34 397.74,1154.26 398.09,1154.30"/>
    </edge>
    <edge id=":11028899265_w0" function="walkingarea">
        <lane id=":11028899265_w0_0" index="0" allow="pedestrian" speed="2.78" length="5.49" width="2.00" shape="577.24,974.41 579.16,973.82 578.35,971.50 578.06,970.68 577.84,969.85 577.69,968.83 577.59,967.43 575.59,967.52 575.69,970.00 575.63,970.88 575.42,971.73 575.02,972.70 574.37,973.94 576.39,974.41 576.73,973.97 576.88,973.92 577.02,973.97 577.14,974.14"/>
    </edge>
    <edge id=":11028899274_w0" function="walkingarea">
        <lane id=":11028899274_w0_0" index="0" allow="pedestrian" speed="2.78" length="4.03" width="2.00" shape="475.49,881.95 473.66,881.14 473.17,881.84 472.86,882.02 472.51,882.09 472.12,882.05 471.69,881.89 470.86,883.71 471.69,884.27 471.95,884.61 472.11,885.00 472.16,885.43 472.11,885.89 474.07,886.30 474.44,884.65 474.61,884.07 474.81,883.51 475.10,882.84"/>
    </edge>
    <edge id=":11028899275_w0" function="walkingarea">
        <lane id=":11028899275_w0_0" index="0" allow="pedestrian" speed="2.78" length="4.43" width="2.00" shape="460.06,795.13 458.69,793.68 458.05,794.09 457.80,794.08 457.60,793.94 457.44,793.66 457.32,793.24 455.36,793.60 455.71,795.20 455.79,795.79 455.74,796.35 455.52,796.98 455.09,797.76 456.77,798.84 457.82,797.33 458.24,796.84 458.71,796.39 459.29,795.85"/>
    </edge>
    <edge id=":11028914026_w0" function="walkingarea">
        <lane id=":11028914026_w0_0" index="0" allow="pedestrian" speed="2.78" length="4.30" width="2.00" shape="413.10,947.90 414.50,946.48 414.07,945.84 414.05,945.56 414.18,945.31 414.44,945.09 414.84,944.90 414.14,943.03 409.21,945.07 410.06,946.88 411.00,946.71 411.50,946.82 412.01,947.05 412.55,947.41"/>
    </edge>
    <edge id=":11028914033_w0" function="walkingarea">
        <lane id=":11028914033_w0_0" index="0" allow="pedestrian" speed="2.78" length="2.92" width="2.00" shape="540.15,794.26 537.22,793.93 537.57,794.51 537.57,794.88 537.46,795.29 537.23,795.76 536.89,796.27 538.89,797.41 538.81,796.52 539.11,795.95 539.51,795.36 539.89,794.78"/>
    </edge>
    <edge id=":11028914049_w0" function="walkingarea">
        <lane id=":11028914049_w0_0" index="0" allow="pedestrian" speed="2.78" length="4.39" width="2.00" shape="552.93,814.64 551.28,810.13 551.32,810.44 551.12,810.53 550.84,810.56 550.54,810.52 550.27,810.39 549.05,811.97 549.61,812.63 549.71,812.98 549.70,813.36 549.57,813.76 549.32,814.19 550.95,815.34"/>
    </edge>
    <edge id=":11028914053_w0" function="walkingarea">
        <lane id=":11028914053_w0_0" index="0" allow="pedestrian" speed="2.78" length="4.17" width="2.00" shape="397.61,1200.75 398.12,1198.82 397.32,1198.38 397.03,1198.02 396.83,1197.57 396.71,1197.04 396.68,1196.41 394.68,1196.40 394.51,1197.19 394.31,1197.43 394.03,1197.56 393.67,1197.59 393.22,1197.52 392.71,1199.45"/>
    </edge>
    <edge id=":11028919593_w0" function="walkingarea">
        <lane id=":11028919593_w0_0" index="0" allow="pedestrian" speed="2.78" length="4.05" width="2.00" shape="141.97,943.83 140.33,942.68 139.72,943.26 139.39,943.37 139.04,943.36 138.68,943.23 138.30,942.97 137.05,944.54 137.66,945.24 137.79,945.60 137.80,945.98 137.69,946.37 137.46,946.77 139.10,947.92"/>
    </edge>
    <edge id=":11028923106_w0" function="walkingarea">
        <lane id=":11028923106_w0_0" index="0" allow="pedestrian" speed="2.78" length="3.92" width="2.00" shape="82.55,862.04 84.43,861.37 84.29,860.46 84.37,860.02 84.55,859.60 84.83,859.20 85.20,858.81 83.86,857.32 83.12,857.77 82.74,857.83 82.37,857.78 81.99,857.62 81.61,857.35 80.30,858.86 81.40,859.84 81.73,860.24 82.00,860.68 82.26,861.26"/>
    </edge>
    <edge id=":11028923108_w0" function="walkingarea">
        <lane id=":11028923108_w0_0" index="0" allow="pedestrian" speed="2.78" length="3.94" width="2.00" shape="58.40,842.78 59.40,841.04 58.02,840.21 57.56,839.88 57.14,839.50 56.66,839.00 56.04,838.31 54.55,839.64 55.00,840.39 55.06,840.77 55.01,841.15 54.86,841.53 54.59,841.92 56.13,843.20 56.81,842.63 57.18,842.51 57.57,842.49 57.98,842.58"/>
    </edge>
    <edge id=":11028923113_w0" function="walkingarea">
        <lane id=":11028923113_w0_0" index="0" allow="pedestrian" speed="2.78" length="4.07" width="2.00" shape="57.89,803.68 58.98,801.93 57.54,801.32 57.10,800.96 56.73,800.50 56.34,799.91 55.83,799.15 54.19,800.29 54.57,801.18 54.61,801.68 54.56,802.22 54.42,802.79 54.18,803.40 55.99,804.24 56.41,803.74 56.70,803.60 57.05,803.55 57.46,803.59"/>
    </edge>
    <edge id=":11028923124_w0" function="walkingarea">
        <lane id=":11028923124_w0_0" index="0" allow="pedestrian" speed="2.78" length="5.02" width="2.00" shape="99.72,769.72 101.61,769.07 99.71,763.49 97.82,764.14 97.92,764.93 97.80,765.21 97.58,765.41 97.25,765.54 96.80,765.59 95.41,767.71 97.29,767.30 98.06,767.51 98.72,767.97 99.28,768.71"/>
    </edge>
    <edge id=":11028923136_w0" function="walkingarea">
        <lane id=":11028923136_w0_0" index="0" allow="pedestrian" speed="2.78" length="4.06" width="2.00" shape="53.87,765.39 52.73,763.75 52.05,764.01 51.77,763.96 51.49,763.80 51.19,763.57 50.84,763.28 48.80,764.21 49.53,765.11 49.71,765.64 49.77,766.24 49.70,766.89 49.52,767.60 51.42,768.23 51.97,766.94 52.29,766.54 52.68,766.21 53.20,765.85"/>
    </edge>
    <edge id=":11028923138_w0" function="walkingarea">
        <lane id=":11028923138_w0_0" index="0" allow="pedestrian" speed="2.78" length="3.96" width="2.00" shape="73.18,758.83 73.57,756.87 72.75,756.52 72.46,756.24 72.25,755.89 72.12,755.47 72.07,754.97 70.07,755.01 69.92,755.87 69.72,756.19 69.44,756.43 69.07,756.60 68.62,756.70 68.87,758.69 70.47,758.51 71.03,758.49 71.60,758.54 72.27,758.65"/>
    </edge>
    <edge id=":11028923142_w0" function="walkingarea">
        <lane id=":11028923142_w0_0" index="0" allow="pedestrian" speed="2.78" length="4.22" width="2.00" shape="97.37,762.84 99.32,762.35 98.01,757.41 96.07,757.90 96.05,758.55 95.89,758.77 95.64,758.94 95.32,759.09 94.94,759.26 94.84,761.49 95.92,761.28 96.37,761.43 96.76,761.73 97.10,762.20"/>
    </edge>
    <edge id=":11028923143_w0" function="walkingarea">
        <lane id=":11028923143_w0_0" index="0" allow="pedestrian" speed="2.78" length="4.09" width="2.00" shape="92.17,762.66 91.36,760.83 90.59,761.00 90.32,760.91 90.11,760.71 89.98,760.38 89.91,759.94 87.92,760.05 87.85,761.55 87.69,762.00 87.44,762.24 87.12,762.29 86.71,762.13 87.47,764.74"/>
    </edge>
    <edge id=":11028923147_w0" function="walkingarea">
        <lane id=":11028923147_w0_0" index="0" allow="pedestrian" speed="2.78" length="4.00" width="2.00" shape="43.97,760.30 45.22,758.75 44.59,758.03 44.43,757.64 44.39,757.24 44.46,756.82 44.63,756.38 42.85,755.46 42.06,756.94 41.75,757.43 41.40,757.90 40.94,758.45 40.31,759.17 41.81,760.49 42.49,759.97 42.84,759.88 43.21,759.91 43.58,760.05"/>
    </edge>
    <edge id=":11028923149_w0" function="walkingarea">
        <lane id=":11028923149_w0_0" index="0" allow="pedestrian" speed="2.78" length="4.04" width="2.00" shape="59.11,744.33 60.97,743.59 60.44,742.53 60.33,741.95 60.32,741.33 60.42,740.69 60.63,740.01 58.75,739.32 58.15,740.59 57.83,740.97 57.42,741.29 56.90,741.63 56.21,742.07 57.30,743.75 58.06,743.45 58.38,743.48 58.66,743.64 58.91,743.92"/>
    </edge>
    <edge id=":11028923160_w0" function="walkingarea">
        <lane id=":11028923160_w0_0" index="0" allow="pedestrian" speed="2.78" length="3.81" width="2.00" shape="29.04,770.58 28.04,768.84 27.21,769.14 26.82,769.12 26.46,769.00 26.10,768.78 25.77,768.45 24.25,769.75 24.90,770.72 25.11,771.21 25.25,771.71 25.30,772.22 25.27,772.73 27.25,772.99 27.54,772.06 27.80,771.64 28.13,771.25 28.55,770.90"/>
    </edge>
    <edge id=":11077817677_w0" function="walkingarea">
        <lane id=":11077817677_w0_0" index="0" allow="pedestrian" speed="2.78" length="4.05" width="2.00" shape="346.46,251.61 347.64,249.98 347.14,249.29 347.06,248.93 347.09,248.56 347.23,248.18 347.49,247.80 345.94,246.53 342.77,250.38 344.31,251.66 344.98,251.14 345.33,251.07 345.69,251.13 346.07,251.31"/>
    </edge>
    <edge id=":11077844008_w0" function="walkingarea">
        <lane id=":11077844008_w0_0" index="0" allow="pedestrian" speed="2.78" length="4.03" width="2.00" shape="340.18,671.50 341.33,669.86 340.75,669.25 340.63,668.91 340.64,668.56 340.75,668.18 340.99,667.79 339.37,666.61 336.43,670.66 338.05,671.83 338.68,671.25 339.02,671.14 339.39,671.14 339.78,671.26"/>
    </edge>
    <edge id=":11091070047_0" function="internal">
        <lane id=":11091070047_0_0" index="0" allow="private emergency authority army vip passenger hov taxi bus coach delivery truck trailer motorcycle evehicle custom1 custom2" speed="23.62" length="2.68" shape="807.53,232.77 805.96,234.94"/>
    </edge>
    <edge id=":11091070047_1" function="internal">
        <lane id=":11091070047_1_0" index="0" allow="private emergency authority army vip passenger hov taxi bus coach delivery truck trailer motorcycle evehicle custom1 custom2" speed="30.56" length="3.00" shape="804.98,230.85 803.35,233.10"/>
        <lane id=":11091070047_1_1" index="1" allow="private emergency authority army vip passenger hov taxi bus coach delivery truck trailer motorcycle evehicle custom1 custom2" speed="30.56" length="3.00" shape="802.42,228.92 800.73,231.26"/>