<?xml version="1.0" encoding="UTF-8"?>

<!-- generated on 2025-01-11 17:53:35.268722 by osmWebWizard.py v1_21_0+0000-d7b3b481c43
<configuration>
    <net-file value="C:\Users\82106\Sumo\2025-01-11-17-53-21\osm.net.xml.gz"/>
    <additional-files value="C:\Users\82106\Sumo\2025-01-11-17-53-21\osm_stops.add.xml,C:\Users\82106\Sumo\2025-01-11-17-53-21\osm_pt.rou.xml"/>
    <output-trip-file value="C:\Users\82106\Sumo\2025-01-11-17-53-21\osm.pedestrian.trips.xml"/>
    <route-file value="C:\Users\82106\Sumo\2025-01-11-17-53-21\osm.pedestrian.rou.xml"/>
    <persontrips value="True"/>
    <persontrip.walk-opposite-factor value="0.8"/>
    <prefix value="ped"/>
    <trip-attributes value="modes=&quot;public&quot;"/>
    <vehicle-class value="pedestrian"/>
    <fringe-factor value="1"/>
    <insertion-density value="10.0"/>
    <duarouter-weights.tls-penalty value="20"/>
</configuration>
-->

<routes xmlns:xsi="http://www.w3.org/2001/XMLSchema-instance" xsi:noNamespaceSchemaLocation="http://sumo.dlr.de/xsd/routes_file.xsd">
    <vType id="ped_pedestrian" vClass="pedestrian"/>
    <person id="ped0" depart="0.00" type="ped_pedestrian">
        <personTrip from="315718281#3" to="-1054939503#8" modes="public"/>
    </person>
    <person id="ped1" depart="12.13" type="ped_pedestrian">
        <personTrip from="-914633664#3" to="-432421580#3" modes="public"/>
    </person>
    <person id="ped2" depart="24.27" type="ped_pedestrian">
        <personTrip from="370139893#0" to="350277267#1" modes="public"/>
    </person>
    <person id="ped3" depart="36.40" type="ped_pedestrian">
        <personTrip from="432421573" to="-1278041129#0" modes="public"/>
    </person>
    <person id="ped4" depart="48.54" type="ped_pedestrian">
        <personTrip from="1151658559#1" to="-1054939504#1" modes="public"/>
    </person>
    <person id="ped5" depart="60.67" type="ped_pedestrian">
        <personTrip from="-432421580#1" to="1187732085#3" modes="public"/>
    </person>
    <person id="ped6" depart="72.80" type="ped_pedestrian">
        <personTrip from="-1054939503#9" to="-375975961" modes="public"/>
    </person>
    <person id="ped7" depart="84.94" type="ped_pedestrian">
        <personTrip from="315718287#1" to="1251521475" modes="public"/>
    </person>
    <person id="ped8" depart="97.07" type="ped_pedestrian">
        <personTrip from="-432421580#1" to="182205748#1" modes="public"/>
    </person>
    <person id="ped9" depart="109.20" type="ped_pedestrian">
        <personTrip from="375713454#0" to="-1054611621" modes="public"/>
    </person>
    <person id="ped10" depart="121.34" type="ped_pedestrian">
        <personTrip from="375713453#5" to="368417673#1" modes="public"/>
    </person>
    <person id="ped11" depart="133.47" type="ped_pedestrian">
        <personTrip from="1054939503#10" to="-369503554#0" modes="public"/>
    </person>
    <person id="ped12" depart="145.61" type="ped_pedestrian">
        <personTrip from="706733119" to="1054939503#1" modes="public"/>
    </person>
    <person id="ped13" depart="157.74" type="ped_pedestrian">
        <personTrip from="-141725856" to="-182205748#1" modes="public"/>
    </person>
    <person id="ped14" depart="169.87" type="ped_pedestrian">
        <personTrip from="375713474" to="282429544#0" modes="public"/>
    </person>
    <person id="ped15" depart="182.01" type="ped_pedestrian">
        <personTrip from="375713453#6" to="370139891#1" modes="public"/>
    </person>
    <person id="ped16" depart="194.14" type="ped_pedestrian">
        <personTrip from="1251521472#0" to="817822877" modes="public"/>
    </person>
    <person id="ped17" depart="206.27" type="ped_pedestrian">
        <personTrip from="1054939510#1" to="1278041124#1" modes="public"/>
    </person>
    <person id="ped18" depart="218.41" type="ped_pedestrian">
        <personTrip from="375713462#0" to="315718279#1" modes="public"/>
    </person>
    <person id="ped19" depart="230.54" type="ped_pedestrian">
        <personTrip from="375713484#4" to="1278208843#3" modes="public"/>
    </person>
    <person id="ped20" depart="242.68" type="ped_pedestrian">
        <personTrip from="368417674#3" to="-1054939509#0" modes="public"/>
    </person>
    <person id="ped21" depart="254.81" type="ped_pedestrian">
        <personTrip from="-432421582#0" to="1046584831" modes="public"/>
    </person>
    <person id="ped22" depart="266.94" type="ped_pedestrian">
        <personTrip from="-1251521472#1" to="-522813046#1" modes="public"/>
    </person>
    <person id="ped23" depart="279.08" type="ped_pedestrian">
        <personTrip from="-282429539" to="-914633664#4" modes="public"/>
    </person>
    <person id="ped24" depart="291.21" type="ped_pedestrian">
        <personTrip from="315718281#1" to="1054939505#3" modes="public"/>
    </person>
    <person id="ped25" depart="303.35" type="ped_pedestrian">
        <personTrip from="1054939507" to="-417990126" modes="public"/>
    </person>
    <person id="ped26" depart="315.48" type="ped_pedestrian">
        <personTrip from="-914633663" to="522813046#1" modes="public"/>
    </person>
    <person id="ped27" depart="327.61" type="ped_pedestrian">
        <personTrip from="315718287#1" to="282429544#3" modes="public"/>
    </person>
    <person id="ped28" depart="339.75" type="ped_pedestrian">
        <personTrip from="-375713478" to="370139891#0" modes="public"/>
    </person>
    <person id="ped29" depart="351.88" type="ped_pedestrian">
        <personTrip from="-370139893#0" to="1054939511" modes="public"/>
    </person>
    <person id="ped30" depart="364.01" type="ped_pedestrian">
        <personTrip from="914633664#0" to="315718281#3" modes="public"/>
    </person>
    <person id="ped31" depart="376.15" type="ped_pedestrian">
        <personTrip from="1278041127" to="368417671#1" modes="public"/>
    </person>
    <person id="ped32" depart="388.28" type="ped_pedestrian">
        <personTrip from="375713466#2" to="375713446#0" modes="public"/>
    </person>
    <person id="ped33" depart="400.42" type="ped_pedestrian">
        <personTrip from="-432421582#1" to="-1054939505#0" modes="public"/>
    </person>
    <person id="ped34" depart="412.55" type="ped_pedestrian">
        <personTrip from="1054611642#1" to="-914633663" modes="public"/>
    </person>
    <person id="ped35" depart="424.68" type="ped_pedestrian">
        <personTrip from="-432421572#0" to="522813046#4" modes="public"/>
    </person>
    <person id="ped36" depart="436.82" type="ped_pedestrian">
        <personTrip from="375975962" to="1054611637#1" modes="public"/>
    </person>
    <person id="ped37" depart="448.95" type="ped_pedestrian">
        <personTrip from="315718287#4" to="1054939518#4" modes="public"/>
    </person>
    <person id="ped38" depart="461.08" type="ped_pedestrian">
        <personTrip from="471685854#0" to="1187730921" modes="public"/>
    </person>
    <person id="ped39" depart="473.22" type="ped_pedestrian">
        <personTrip from="-896099289#0" to="-523141072#1" modes="public"/>
    </person>
    <person id="ped40" depart="485.35" type="ped_pedestrian">
        <personTrip from="1278041129#1" to="-817822880" modes="public"/>
    </person>
    <person id="ped41" depart="497.49" type="ped_pedestrian">
        <personTrip from="182205729" to="432421580#2" modes="public"/>
    </person>
    <person id="ped42" depart="509.62" type="ped_pedestrian">
        <personTrip from="1054939520#0" to="-432421580#1" modes="public"/>
    </person>
    <person id="ped43" depart="521.75" type="ped_pedestrian">
        <personTrip from="914633664#4" to="1187732087#0" modes="public"/>
    </person>
    <person id="ped44" depart="533.89" type="ped_pedestrian">
        <personTrip from="-141725856" to="-1054939509#1" modes="public"/>
    </person>
    <person id="ped45" depart="546.02" type="ped_pedestrian">
        <personTrip from="-282429542" to="315718280#0" modes="public"/>
    </person>
    <person id="ped46" depart="558.16" type="ped_pedestrian">
        <personTrip from="375713451" to="1151658559#1" modes="public"/>
    </person>
    <person id="ped47" depart="570.29" type="ped_pedestrian">
        <personTrip from="-1054939518#3" to="1054939512" modes="public"/>
    </person>
    <person id="ped48" depart="582.42" type="ped_pedestrian">
        <personTrip from="914633664#3" to="1193442922" modes="public"/>
    </person>
    <person id="ped49" depart="594.56" type="ped_pedestrian">
        <personTrip from="79472446" to="375713484#4" modes="public"/>
    </person>
    <person id="ped50" depart="606.69" type="ped_pedestrian">
        <personTrip from="-1054939503#1" to="370139887#0" modes="public"/>
    </person>
    <person id="ped51" depart="618.82" type="ped_pedestrian">
        <personTrip from="368417671#0" to="1251521472#0" modes="public"/>
    </person>
    <person id="ped52" depart="630.96" type="ped_pedestrian">
        <personTrip from="-914442807" to="315718281#4" modes="public"/>
    </person>
    <person id="ped53" depart="643.09" type="ped_pedestrian">
        <personTrip from="-282429543" to="1155678335" modes="public"/>
    </person>
    <person id="ped54" depart="655.23" type="ped_pedestrian">
        <personTrip from="1187730919" to="70651520" modes="public"/>
    </person>
    <person id="ped55" depart="667.36" type="ped_pedestrian">
        <personTrip from="375975961" to="-896099289#0" modes="public"/>
    </person>
    <person id="ped56" depart="679.49" type="ped_pedestrian">
        <personTrip from="1187732085#0" to="-375713484#1" modes="public"/>
    </person>
    <person id="ped57" depart="691.63" type="ped_pedestrian">
        <personTrip from="471685853#2" to="375975959" modes="public"/>
    </person>
    <person id="ped58" depart="703.76" type="ped_pedestrian">
        <personTrip from="1054611629#0" to="315718281#3" modes="public"/>
    </person>
    <person id="ped59" depart="715.90" type="ped_pedestrian">
        <personTrip from="282429544#3" to="-369503553" modes="public"/>
    </person>
    <person id="ped60" depart="728.03" type="ped_pedestrian">
        <personTrip from="370150186#1" to="1251521472#1" modes="public"/>
    </person>
    <person id="ped61" depart="740.16" type="ped_pedestrian">
        <personTrip from="375713446#1" to="1193446069" modes="public"/>
    </person>
    <person id="ped62" depart="752.30" type="ped_pedestrian">
        <personTrip from="-1047544563" to="1054939501#2" modes="public"/>
    </person>
    <person id="ped63" depart="764.43" type="ped_pedestrian">
        <personTrip from="-1054939503#4" to="471686108#0" modes="public"/>
    </person>
    <person id="ped64" depart="776.56" type="ped_pedestrian">
        <personTrip from="375975963" to="375713462#1" modes="public"/>
    </person>
    <person id="ped65" depart="788.70" type="ped_pedestrian">
        <personTrip from="1054611633#0" to="-1054939518#0" modes="public"/>
    </person>
    <person id="ped66" depart="800.83" type="ped_pedestrian">
        <personTrip from="375975962" to="522813048#1" modes="public"/>
    </person>
    <person id="ped67" depart="812.97" type="ped_pedestrian">
        <personTrip from="-1278041129#0" to="1187732082#5" modes="public"/>
    </person>
    <person id="ped68" depart="825.10" type="ped_pedestrian">
        <personTrip from="-1054939520#0" to="370150186#0" modes="public"/>
    </person>
    <person id="ped69" depart="837.23" type="ped_pedestrian">
        <personTrip from="370150187" to="-315718281#0" modes="public"/>
    </person>
    <person id="ped70" depart="849.37" type="ped_pedestrian">
        <personTrip from="1187730928" to="1278041124#0" modes="public"/>
    </person>
    <person id="ped71" depart="861.50" type="ped_pedestrian">
        <personTrip from="-914442807" to="375975960" modes="public"/>
    </person>
    <person id="ped72" depart="873.63" type="ped_pedestrian">
        <personTrip from="1151658559#1" to="-432421572#0" modes="public"/>
    </person>
    <person id="ped73" depart="885.77" type="ped_pedestrian">
        <personTrip from="1251521472#1" to="370139891#1" modes="public"/>
    </person>
    <person id="ped74" depart="897.90" type="ped_pedestrian">
        <personTrip from="-375975962" to="1054611635#1" modes="public"/>
    </person>
    <person id="ped75" depart="910.04" type="ped_pedestrian">
        <personTrip from="914633664#3" to="315718287#1" modes="public"/>
    </person>
    <person id="ped76" depart="922.17" type="ped_pedestrian">
        <personTrip from="1177540957" to="1187732089#0" modes="public"/>
    </person>
    <person id="ped77" depart="934.30" type="ped_pedestrian">
        <personTrip from="-282429545#1" to="-432421580#4" modes="public"/>
    </person>
    <person id="ped78" depart="946.44" type="ped_pedestrian">
        <personTrip from="1054939503#1" to="182205748#1" modes="public"/>
    </person>
    <person id="ped79" depart="958.57" type="ped_pedestrian">
        <personTrip from="-432421582#1" to="-432421580#1" modes="public"/>
    </person>
    <person id="ped80" depart="970.71" type="ped_pedestrian">
        <personTrip from="-1054939520#1" to="315718280#3" modes="public"/>
    </person>
    <person id="ped81" depart="982.84" type="ped_pedestrian">
        <personTrip from="-432421582#1" to="432421582#1" modes="public"/>
    </person>
    <person id="ped82" depart="994.97" type="ped_pedestrian">
        <personTrip from="375713484#3" to="-1054939520#1" modes="public"/>
    </person>
    <person id="ped83" depart="1007.11" type="ped_pedestrian">
        <personTrip from="-522813046#4" to="315718796#1" modes="public"/>
    </person>
    <person id="ped84" depart="1019.24" type="ped_pedestrian">
        <personTrip from="-432421572#1" to="-315718281#2" modes="public"/>
    </person>
    <person id="ped85" depart="1031.37" type="ped_pedestrian">
        <personTrip from="522813046#0" to="1278208843#0" modes="public"/>
    </person>
    <person id="ped86" depart="1043.51" type="ped_pedestrian">
        <personTrip from="1187730927" to="375713447#3" modes="public"/>
    </person>
    <person id="ped87" depart="1055.64" type="ped_pedestrian">
        <personTrip from="375713453#6" to="-375713484#7" modes="public"/>
    </person>
    <person id="ped88" depart="1067.78" type="ped_pedestrian">
        <personTrip from="-182205748#1" to="1155678334#0" modes="public"/>
    </person>
    <person id="ped89" depart="1079.91" type="ped_pedestrian">
        <personTrip from="1151658559#1" to="1187730924" modes="public"/>
    </person>
    <person id="ped90" depart="1092.04" type="ped_pedestrian">
        <personTrip from="370139891#0" to="350277267#0" modes="public"/>
    </person>
    <person id="ped91" depart="1104.18" type="ped_pedestrian">
        <personTrip from="896099289#1" to="-182205748#1" modes="public"/>
    </person>
    <person id="ped92" depart="1116.31" type="ped_pedestrian">
        <personTrip from="1054939521" to="1054939503#10" modes="public"/>
    </person>
    <person id="ped93" depart="1128.44" type="ped_pedestrian">
        <personTrip from="375713484#4" to="-523141072#2" modes="public"/>
    </person>
    <person id="ped94" depart="1140.58" type="ped_pedestrian">
        <personTrip from="-375713484#7" to="1187729487#4" modes="public"/>
    </person>
    <person id="ped95" depart="1152.71" type="ped_pedestrian">
        <personTrip from="1151658559#1" to="-914638009" modes="public"/>
    </person>
    <person id="ped96" depart="1164.85" type="ped_pedestrian">
        <personTrip from="-70651520" to="471685858#1" modes="public"/>
    </person>
    <person id="ped97" depart="1176.98" type="ped_pedestrian">
        <personTrip from="1187729487#2" to="375713484#4" modes="public"/>
    </person>
    <person id="ped98" depart="1189.11" type="ped_pedestrian">
        <personTrip from="1278041124#0" to="-1054939510#1" modes="public"/>
    </person>
    <person id="ped99" depart="1201.25" type="ped_pedestrian">
        <personTrip from="914638009" to="375713465#1" modes="public"/>
    </person>
    <person id="ped100" depart="1213.38" type="ped_pedestrian">
        <personTrip from="769538138" to="471685858#2" modes="public"/>
    </person>
    <person id="ped101" depart="1225.52" type="ped_pedestrian">
        <personTrip from="375713474" to="-370139893#1" modes="public"/>
    </person>
    <person id="ped102" depart="1237.65" type="ped_pedestrian">
        <personTrip from="1187732082#5" to="-432421572#1" modes="public"/>
    </person>
    <person id="ped103" depart="1249.78" type="ped_pedestrian">
        <personTrip from="1054939520#1" to="-1054939518#1" modes="public"/>
    </person>
    <person id="ped104" depart="1261.92" type="ped_pedestrian">
        <personTrip from="1054939510#1" to="914442807" modes="public"/>
    </person>
    <person id="ped105" depart="1274.05" type="ped_pedestrian">
        <personTrip from="-914442807" to="375713447#3" modes="public"/>
    </person>
    <person id="ped106" depart="1286.18" type="ped_pedestrian">
        <personTrip from="1187730920#0" to="1151658559#1" modes="public"/>
    </person>
    <person id="ped107" depart="1298.32" type="ped_pedestrian">
        <personTrip from="706733119" to="914633664#3" modes="public"/>
    </person>
    <person id="ped108" depart="1310.45" type="ped_pedestrian">
        <personTrip from="1278041127" to="369503554#1" modes="public"/>
    </person>
    <person id="ped109" depart="1322.59" type="ped_pedestrian">
        <personTrip from="-369503554#0" to="1054611621" modes="public"/>
    </person>
    <person id="ped110" depart="1334.72" type="ped_pedestrian">
        <personTrip from="769538138" to="1324918735" modes="public"/>
    </person>
    <person id="ped111" depart="1346.85" type="ped_pedestrian">
        <personTrip from="1251521474" to="370140660#3" modes="public"/>
    </person>
    <person id="ped112" depart="1358.99" type="ped_pedestrian">
        <personTrip from="-1054939518#0" to="182205729" modes="public"/>
    </person>
    <person id="ped113" depart="1371.12" type="ped_pedestrian">
        <personTrip from="1187732085#1" to="375713483#1" modes="public"/>
    </person>
    <person id="ped114" depart="1383.25" type="ped_pedestrian">
        <personTrip from="-369503554#1" to="706733120#1" modes="public"/>
    </person>
    <person id="ped115" depart="1395.39" type="ped_pedestrian">
        <personTrip from="-1251521472#1" to="-375713484#5" modes="public"/>
    </person>
    <person id="ped116" depart="1407.52" type="ped_pedestrian">
        <personTrip from="282429540" to="350277267#1" modes="public"/>
    </person>
    <person id="ped117" depart="1419.66" type="ped_pedestrian">
        <personTrip from="-522813046#2" to="-282429545#0" modes="public"/>
    </person>
    <person id="ped118" depart="1431.79" type="ped_pedestrian">
        <personTrip from="432421572#1" to="-523141072#1" modes="public"/>
    </person>
    <person id="ped119" depart="1443.92" type="ped_pedestrian">
        <personTrip from="282429540" to="315718279#2" modes="public"/>
    </person>
    <person id="ped120" depart="1456.06" type="ped_pedestrian">
        <personTrip from="1151658557#1" to="175103459" modes="public"/>
    </person>
    <person id="ped121" depart="1468.19" type="ped_pedestrian">
        <personTrip from="1187732427" to="522813046#0" modes="public"/>
    </person>
    <person id="ped122" depart="1480.33" type="ped_pedestrian">
        <personTrip from="-375975964" to="369503554#0" modes="public"/>
    </person>
    <person id="ped123" depart="1492.46" type="ped_pedestrian">
        <personTrip from="-522813046#4" to="1054939518#4" modes="public"/>
    </person>
    <person id="ped124" depart="1504.59" type="ped_pedestrian">
        <personTrip from="327364742" to="1054611629#1" modes="public"/>
    </person>
    <person id="ped125" depart="1516.73" type="ped_pedestrian">
        <personTrip from="1054611642#1" to="370140661#1" modes="public"/>
    </person>
    <person id="ped126" depart="1528.86" type="ped_pedestrian">
        <personTrip from="-1054939521" to="1187730920#1" modes="public"/>
    </person>
    <person id="ped127" depart="1540.99" type="ped_pedestrian">
        <personTrip from="914638009" to="914633664#3" modes="public"/>
    </person>
    <person id="ped128" depart="1553.13" type="ped_pedestrian">
        <personTrip from="-1054939521" to="-432421572#1" modes="public"/>
    </person>
    <person id="ped129" depart="1565.26" type="ped_pedestrian">
        <personTrip from="-914442807" to="471686108#2" modes="public"/>
    </person>
    <person id="ped130" depart="1577.40" type="ped_pedestrian">
        <personTrip from="375975964" to="375975963" modes="public"/>
    </person>
    <person id="ped131" depart="1589.53" type="ped_pedestrian">
        <personTrip from="1054939507" to="-369503554#1" modes="public"/>
    </person>
    <person id="ped132" depart="1601.66" type="ped_pedestrian">
        <personTrip from="375713465#0" to="368417674#2" modes="public"/>
    </person>
    <person id="ped133" depart="1613.80" type="ped_pedestrian">
        <personTrip from="282429545#1" to="914633663" modes="public"/>
    </person>
    <person id="ped134" depart="1625.93" type="ped_pedestrian">
        <personTrip from="315718287#4" to="-1054939503#0" modes="public"/>
    </person>
    <person id="ped135" depart="1638.07" type="ped_pedestrian">
        <personTrip from="375713455" to="1054611629#0" modes="public"/>
    </person>
    <person id="ped136" depart="1650.20" type="ped_pedestrian">
        <personTrip from="315718289#1" to="522813046#2" modes="public"/>
    </person>
    <person id="ped137" depart="1662.33" type="ped_pedestrian">
        <personTrip from="-315718281#3" to="-282429544#2" modes="public"/>
    </person>
    <person id="ped138" depart="1674.47" type="ped_pedestrian">
        <personTrip from="-282429541#1" to="1278041125" modes="public"/>
    </person>
    <person id="ped139" depart="1686.60" type="ped_pedestrian">
        <personTrip from="-914633664#1" to="282429544#0" modes="public"/>
    </person>
    <person id="ped140" depart="1698.73" type="ped_pedestrian">
        <personTrip from="369503554#1" to="-375975964" modes="public"/>
    </person>
    <person id="ped141" depart="1710.87" type="ped_pedestrian">
        <personTrip from="315718281#0" to="-896099289#0" modes="public"/>
    </person>
    <person id="ped142" depart="1723.00" type="ped_pedestrian">
        <personTrip from="1187732083#0" to="432421582#1" modes="public"/>
    </person>
    <person id="ped143" depart="1735.14" type="ped_pedestrian">
        <personTrip from="375713471" to="-141725856" modes="public"/>
    </person>
    <person id="ped144" depart="1747.27" type="ped_pedestrian">
        <personTrip from="1151658559#1" to="-914633664#4" modes="public"/>
    </person>
    <person id="ped145" depart="1759.40" type="ped_pedestrian">
        <personTrip from="-1047544564#0" to="370150191#0" modes="public"/>
    </person>
    <person id="ped146" depart="1771.54" type="ped_pedestrian">
        <personTrip from="315718281#2" to="-817822880" modes="public"/>
    </person>
    <person id="ped147" depart="1783.67" type="ped_pedestrian">
        <personTrip from="370140660#0" to="1278041124#1" modes="public"/>
    </person>
    <person id="ped148" depart="1795.80" type="ped_pedestrian">
        <personTrip from="1152809620" to="-1054939503#0" modes="public"/>
    </person>
    <person id="ped149" depart="1807.94" type="ped_pedestrian">
        <personTrip from="-1234145407" to="375975965" modes="public"/>
    </person>
    <person id="ped150" depart="1820.07" type="ped_pedestrian">
        <personTrip from="432421582#0" to="1251521476" modes="public"/>
    </person>
    <person id="ped151" depart="1832.21" type="ped_pedestrian">
        <personTrip from="375713465#0" to="175103459" modes="public"/>
    </person>
    <person id="ped152" depart="1844.34" type="ped_pedestrian">
        <personTrip from="-315718797" to="-315718280#3" modes="public"/>
    </person>
    <person id="ped153" depart="1856.47" type="ped_pedestrian">
        <personTrip from="1054611633#1" to="432421580#2" modes="public"/>
    </person>
    <person id="ped154" depart="1868.61" type="ped_pedestrian">
        <personTrip from="375713453#0" to="375713484#3" modes="public"/>
    </person>
    <person id="ped155" depart="1880.74" type="ped_pedestrian">
        <personTrip from="432421580#2" to="-417990126" modes="public"/>
    </person>
    <person id="ped156" depart="1892.88" type="ped_pedestrian">
        <personTrip from="-70651520" to="-282429540" modes="public"/>
    </person>
    <person id="ped157" depart="1905.01" type="ped_pedestrian">
        <personTrip from="375713447#1" to="417990125" modes="public"/>
    </person>
    <person id="ped158" depart="1917.14" type="ped_pedestrian">
        <personTrip from="1087669361" to="315718279#2" modes="public"/>
    </person>
    <person id="ped159" depart="1929.28" type="ped_pedestrian">
        <personTrip from="-369503553" to="471686108#0" modes="public"/>
    </person>
    <person id="ped160" depart="1941.41" type="ped_pedestrian">
        <personTrip from="375713484#6" to="817822878" modes="public"/>
    </person>
    <person id="ped161" depart="1953.54" type="ped_pedestrian">
        <personTrip from="375713454#1" to="375975964" modes="public"/>
    </person>
    <person id="ped162" depart="1965.68" type="ped_pedestrian">
        <personTrip from="-1054939503#8" to="370139893#0" modes="public"/>
    </person>
    <person id="ped163" depart="1977.81" type="ped_pedestrian">
        <personTrip from="1054939502#2" to="471686108#1" modes="public"/>
    </person>
    <person id="ped164" depart="1989.95" type="ped_pedestrian">
        <personTrip from="375713453#3" to="375713484#5" modes="public"/>
    </person>
    <person id="ped165" depart="2002.08" type="ped_pedestrian">
        <personTrip from="375713454#1" to="-914442807" modes="public"/>
    </person>
    <person id="ped166" depart="2014.21" type="ped_pedestrian">
        <personTrip from="375713449" to="-282429541#1" modes="public"/>
    </person>
    <person id="ped167" depart="2026.35" type="ped_pedestrian">
        <personTrip from="375975959" to="375713484#2" modes="public"/>
    </person>
    <person id="ped168" depart="2038.48" type="ped_pedestrian">
        <personTrip from="-432421580#2" to="375713455" modes="public"/>
    </person>
    <person id="ped169" depart="2050.61" type="ped_pedestrian">
        <personTrip from="1187730921" to="1054611630#2" modes="public"/>
    </person>
    <person id="ped170" depart="2062.75" type="ped_pedestrian">
        <personTrip from="375713453#0" to="-432421582#0" modes="public"/>
    </person>
    <person id="ped171" depart="2074.88" type="ped_pedestrian">
        <personTrip from="-1054939503#8" to="-375713485" modes="public"/>
    </person>
    <person id="ped172" depart="2087.02" type="ped_pedestrian">
        <personTrip from="1054939502#0" to="375713484#5" modes="public"/>
    </person>
    <person id="ped173" depart="2099.15" type="ped_pedestrian">
        <personTrip from="706733123" to="-914638009" modes="public"/>
    </person>
    <person id="ped174" depart="2111.28" type="ped_pedestrian">
        <personTrip from="315718281#4" to="1054939520#0" modes="public"/>
    </person>
    <person id="ped175" depart="2123.42" type="ped_pedestrian">
        <personTrip from="896099289#0" to="1251521472#0" modes="public"/>
    </person>
    <person id="ped176" depart="2135.55" type="ped_pedestrian">
        <personTrip from="522813046#2" to="-282429544#2" modes="public"/>
    </person>
    <person id="ped177" depart="2147.69" type="ped_pedestrian">
        <personTrip from="769538139" to="-375713484#1" modes="public"/>
    </person>
    <person id="ped178" depart="2159.82" type="ped_pedestrian">
        <personTrip from="706733120#2" to="-914442807" modes="public"/>
    </person>
    <person id="ped179" depart="2171.95" type="ped_pedestrian">
        <personTrip from="-282429542" to="1155678335" modes="public"/>
    </person>
    <person id="ped180" depart="2184.09" type="ped_pedestrian">
        <personTrip from="370139891#0" to="1054611637#1" modes="public"/>
    </person>
    <person id="ped181" depart="2196.22" type="ped_pedestrian">
        <personTrip from="282429544#2" to="1187732087#1" modes="public"/>
    </person>
    <person id="ped182" depart="2208.35" type="ped_pedestrian">
        <personTrip from="1054939517#1" to="1278208843#3" modes="public"/>
    </person>
    <person id="ped183" depart="2220.49" type="ped_pedestrian">
        <personTrip from="-79472446" to="369503550" modes="public"/>
    </person>
    <person id="ped184" depart="2232.62" type="ped_pedestrian">
        <personTrip from="-1047544563" to="471685858#2" modes="public"/>
    </person>
    <person id="ped185" depart="2244.76" type="ped_pedestrian">
        <personTrip from="1251521472#1" to="369503554#1" modes="public"/>
    </person>
    <person id="ped186" depart="2256.89" type="ped_pedestrian">
        <personTrip from="370140660#0" to="315718797" modes="public"/>
    </person>
    <person id="ped187" depart="2269.02" type="ped_pedestrian">
        <personTrip from="1054939505#3" to="-1054939520#1" modes="public"/>
    </person>
    <person id="ped188" depart="2281.16" type="ped_pedestrian">
        <personTrip from="315718290" to="1054939502#1" modes="public"/>
    </person>
    <person id="ped189" depart="2293.29" type="ped_pedestrian">
        <personTrip from="1054611637#1" to="375713474" modes="public"/>
    </person>
    <person id="ped190" depart="2305.42" type="ped_pedestrian">
        <personTrip from="370139887#0" to="1054611629#1" modes="public"/>
    </person>
    <person id="ped191" depart="2317.56" type="ped_pedestrian">
        <personTrip from="1054611633#1" to="1087669362" modes="public"/>
    </person>
    <person id="ped192" depart="2329.69" type="ped_pedestrian">