<?xml version="1.0" encoding="UTF-8"?>

<!-- generated on 2025-01-18 11:37:20 by Eclipse SUMO netedit Version 1.21.0
-->

<routes xmlns:xsi="http://www.w3.org/2001/XMLSchema-instance" xsi:noNamespaceSchemaLocation="http://sumo.dlr.de/xsd/routes_file.xsd">
    <!-- VTypes -->
    <vType id="ped_pedestrian" vClass="pedestrian"/>
    <vType id="pt_aerialway" length="2.50" vClass="cable_car" width="2.00" personCapacity="4"/>
    <vType id="pt_bus" vClass="bus"/>
    <vType id="pt_ferry" vClass="ship"/>
    <vType id="pt_light_rail" vClass="rail_urban"/>
    <vType id="pt_minibus" vClass="bus"/>
    <vType id="pt_monorail" vClass="rail_urban"/>
    <vType id="pt_share_taxi" vClass="taxi"/>
    <vType id="pt_subway" vClass="subway"/>
    <vType id="pt_train" vClass="rail"/>
    <vType id="pt_tram" vClass="tram"/>
    <vType id="pt_trolleybus" vClass="bus"/>
    <vType id="veh_passenger" vClass="passenger"/>

    <!-- Routes -->
    <route id="pt_subway_320:0" edges="951688080" color="200,33,39"/>
    <route id="pt_subway_326:0" edges="391358773" color="200,33,39"/>
    <route id="r140" edges="521766192 494822052#0 494822052#2 494822052#3 522941402 523141075#0 523141075#1 494822050 1251522286 524280033#0 524280033#1 524280033#2 494822065 523141071 522941401#0 522941401#1 522941401#2 522941401#3 521766191"/>
    <route id="r1550-1" edges="521766192 494822052#0 494822052#2 494822052#3 522941402 523141075#0 523141075#1 494822050 1251522287 760739036 1054939516 1054939514#0 1054939514#1 1164347252#0 1164347252#1"/>
    <route id="r400" edges="521766192 494822052#0 494822052#2 494822052#3 522941402 523141075#0 523141075#1 494822050 472071195 277249190 472042756 886377753#0 886377753#1 277249197#0"/>
    <route id="r440" edges="521766192 494822052#0 494822052#2 494822052#3 522941402 523141075#0 523141075#1 494822050 472071195 277249190 472042757 522941405#0 522941405#1 521770124 277249191"/>
    <route id="r6" edges="521766192 494822052#0 494822052#2 494822052#3 522941402 523141075#0 523141075#1 494822050 1251522287 760739036 1054939516 1054939514#0 1054939514#1 829379108#0 829379108#1 829379108#2"/>
    <route id="r_seocho_20" edges="521766192 494822052#0 494822052#2 494822052#3 -494822055#1 -494822055#0 -522813029#3 -522813029#2 -522813029#1 -522813029#0 -37400377#14 -37400377#13 -37400377#12 -37400377#11 -37400377#10 -37400377#9 -37400377#8 -37400377#7 -37400377#6 -37400377#3 -37400377#1 -37400377#0"/>
    <!-- Vehicles, persons and containers (sorted by depart) -->

<!-- --><flow id = "passenger_veh" type = "veh_passenger" from = "521766192" to = "277249191" begin = "0" end = "10800" vehsPerHour = "1000" departLane="random">
</flow>
<flow id = "passenger_veh2" type = "veh_passenger" from = "760739037" to = "829379108#2" begin = "0" end = "10800" vehsPerHour = "500" departLane="random">
</flow>
<flow id = "passenger_veh3" type = "veh_passenger" from = "760739037" to = "760739040" begin = "0" end = "10800" vehsPerHour = "500" departLane="random">
</flow>


<flow id="1151" type="pt_bus" begin="0" end="10800" period="450" color="128,0,0" route="r1550-1">
    <stop busStop="b22296" duration="20" />
</flow>
<flow id="3000" type="pt_bus" begin="0" end="10800" period="600" color="128,0,0" route="r6">
    <stop busStop="b22296" duration="20.00" />
</flow>
<flow id="3100" type="pt_bus" begin="0" end="10800" period="1800" color="128,0,0" route="r6">
    <stop busStop="b22296" duration="20.00" />
</flow>
<flow id="140" type="pt_bus" begin="0" end="10800" period="360" color="0,0,225" route="r140">
    <stop busStop="b22294" duration="20.00" />
    <stop busStop="b22298" duration="20.00" />
    <stop busStop="b22293" duration="20.00" />
    <stop busStop="b22295" duration="20.00" />
</flow>
<flow id="1101" type="pt_bus" begin="0" end="10800" period="1100" color="255,0,0" route="r440">
    <stop busStop="b22296" duration="20.00" />
</flow>
<flow id="6" type="pt_bus" begin="60" end="10800" period="1020" color="0,128,0" route="r6">
    <stop busStop="b22294" duration="20" />
    <stop busStop="b22298" duration="20" />
</flow>
<flow id="3003" type="pt_bus" begin="60" end="10800" period="800" color="128,0,0" route="r6">
    <stop busStop="b22296" duration="20" />
</flow>
<flow id="0411" type="pt_bus" begin="60" end="10800" period="800" color="0,128,0" route="r140">
    <stop busStop="b22294" duration="20.00" />
    <stop busStop="b22298" duration="20.00" />
    <stop busStop="b22293" duration="20.00" />
    <stop busStop="b22295" duration="20.00" />
</flow>
<flow id="400" type="pt_bus" begin="100" end="10800" period="720" color="0,128,0" route="r400">
    <stop busStop="b22294" duration="20.00" />
    <stop busStop="b22298" duration="20.00" />
    <stop busStop="b22378" duration="20.00" />
</flow>
<flow id="4403" type="pt_bus" begin="120" end="10800" period="1030" color="128,0,0" route="r1550-1">
    <stop busStop="b22296" duration="20" />
</flow>
<flow id="9100" type="pt_bus" begin="120" end="10800" period="1200" color="128,0,0" route="r6">
    <stop busStop="b22296" duration="20.00" />
</flow>
<flow id="1550-1" type="pt_bus" begin="240" end="10800" period="600" color="128,0,0" route="r1550-1">
    <stop busStop="b22296" duration="20" />
</flow>
<flow id="3401" type="pt_bus" begin="240" end="10800" period="1200" color="128,0,0" route="r1550-1">
    <stop busStop="b22296" duration="20" />
</flow>
<flow id="4432" type="pt_bus" begin="240" end="10800" period="720" color="0,128,0" route="r440">
    <stop busStop="b22294" duration="20.00" />
    <stop busStop="b22298" duration="20.00" />
</flow>
<flow id="1005" type="pt_bus" begin="300" end="10800" period="1800" color="128,0,0" route="r1550-1">
    <stop busStop="b22296" duration="20" />
</flow>
<flow id="5006" type="pt_bus" begin="360" end="10800" period="1080" color="128,0,0" route="r1550-1">
    <stop busStop="b22296" duration="20" />
</flow>
<flow id="405" type="pt_bus" begin="360" end="10800" period="800" color="0,128,0" route="r400">
    <stop busStop="b22294" duration="20.00" />
    <stop busStop="b22298" duration="20.00" />
    <stop busStop="b22378" duration="20.00" />
</flow>
<flow id="G9633" type="pt_bus" begin="420" end="10800" period="720" color="128,0,0" route="r6">
    <stop busStop="b22296" duration="20.00" />
</flow> 
<flow id="9200" type="pt_bus" begin="420" end="10800" period="1200" color="128,0,0" route="r6">
    <stop busStop="b22296" duration="20.00" />
</flow>
<flow id="M4403" type="pt_bus" begin="480" end="10800" period="500" color="128,0,0" route="r1550-1">
    <stop busStop="b22296" duration="20" />
</flow>
<flow id="M4448" type="pt_bus" begin="500" end="10800" period="1800" color="128,0,0" route="r1550-1">
    <stop busStop="b22296" duration="20" />
</flow>
<flow id="5100" type="pt_bus" begin="540" end="10800" period="450" color="128,0,0" route="r1550-1">
    <stop busStop="b22296" duration="20" />
</flow>
<flow id="6002" type="pt_bus" begin="540" end="10800" period="360" color="128,0,0" route="r1550-1">
    <stop busStop="b22296" duration="20" />
</flow>
<flow id="5200" type="pt_bus" begin="540" end="10800" period="1800" color="128,0,0" route="r1550-1">
    <stop busStop="b22296" duration="20" />
</flow>
<flow id="11-3" type="pt_bus" begin="540" end="10800" period="514" color="0,128,0" route="r6">
    <stop busStop="b22294" duration="20" />
    <stop busStop="b22294" duration="20" />
</flow>
<flow id="1006" type="pt_bus" begin="540" end="10800" period="1800" color="128,0,0" route="r6">
    <stop busStop="b22296" duration="20.00" />
</flow>
<flow id="seocho_20" type="pt_bus" begin="540" end="10800" period="1700" color="0,128,0" route="r_seocho_20">
    <stop busStop="b22294" duration="20.00" />
    <stop busStop="b22911" duration="20.00" />
    <stop busStop="b22876" duration="20.00" />
    <stop busStop="b37501" duration="20.00" />
    <stop busStop="b22893" duration="20.00" />
</flow>
<flow id="M6410" type="pt_bus" begin="600" end="10800" period="1500" color="128,0,0" route="r6">
    <stop busStop="b22296" duration="20" />
</flow>
<flow id="421" type="pt_bus" begin="600" end="10800" period="500" color="0,128,0" route="r400">
    <stop busStop="b22294" duration="20.00" />
    <stop busStop="b22298" duration="20.00" />
    <stop busStop="b22378" duration="20.00" />
</flow>
<flow id="8502" type="pt_bus" begin="660" end="10800" period="2700" color="128,0,0" route="r1550-1">
    <stop busStop="b22296" duration="20" />
</flow>
<flow id="4449" type="pt_bus" begin="660" end="10800" period="2700" color="128,0,0" route="r1550-1">
    <stop busStop="b22296" duration="20" />
</flow>
<flow id="9004" type="pt_bus" begin="720" end="10800" period="500" color="128,0,0" route="r1550-1">
    <stop busStop="b22296" duration="20" />
</flow>
<flow id="6501" type="pt_bus" begin="780" end="10800" period="800" color="128,0,0" route="r6">
    <stop busStop="b22296" duration="20" />
</flow>
<flow id="3101" type="pt_bus" begin="780" end="10800" period="1800" color="128,0,0" route="r6">
    <stop busStop="b22296" duration="20" />
</flow>
<flow id="5300" type="pt_bus" begin="780" end="10800" period="780" color="128,0,0" route="r6">
    <stop busStop="b22296" duration="20.00" />
</flow>
<flow id="6001" type="pt_bus" begin="840" end="10800" period="540" color="128,0,0" route="r1550-1">
    <stop busStop="b22296" duration="20" />
</flow>
<flow id="M5438" type="pt_bus" begin="840" end="10800" period="1200" color="128,0,0" route="r1550-1">
    <stop busStop="b22296" duration="20" />
</flow>
<flow id="M6405" type="pt_bus" begin="900" end="10800" period="900" color="128,0,0" route="r6">
    <stop busStop="b22296" duration="20.00" />
</flow>
<flow id="3102" type="pt_bus" begin="900" end="10800" period="1020" color="128,0,0" route="r6">
    <stop busStop="b22296" duration="20.00" />
</flow>
<flow id="G1003" type="pt_bus" begin="960" end="10800" period="2400" color="128,0,0" route="r6">
    <stop busStop="b22296" duration="20.00" />
</flow>
<flow id="G8157" type="pt_bus" begin="1080" end="10800" period="1800" color="128,0,0" route="r6">
    <stop busStop="b22296" duration="20.00" />
</flow>
<flow id="9300" type="pt_bus" begin="1080" end="10800" period="2700" color="128,0,0" route="r6">
    <stop busStop="b22296" duration="20.00" />
</flow>
<flow id="3008" type="pt_bus" begin="1080" end="10800" period="2400" color="255,0,0" route="r440">
    <stop busStop="b22296" duration="20.00" />
</flow>
<flow id="6600" type="pt_bus" begin="1200" end="10800" period="3000" color="128,0,0" route="r1550-1">
    <stop busStop="b22296" duration="20" />
</flow>
<flow id="9201" type="pt_bus" begin="1200" end="10800" period="1800" color="128,0,0" route="r6">
    <stop busStop="b22296" duration="20.00" />
</flow>
<flow id="3030" type="pt_bus" begin="1200" end="10800" period="1020" color="128,0,0" route="r6">
    <stop busStop="b22296" duration="20.00" />
</flow>
<flow id="5401" type="pt_bus" begin="1260" end="10800" period="1200" color="128,0,0" route="r1550-1">
    <stop busStop="b22296" duration="20" />
</flow>
<flow id="8501" type="pt_bus" begin="1380" end="10800" period="1800" color="128,0,0" route="r1550-1">
    <stop busStop="b22296" duration="20" />
</flow>
<flow id="6004" type="pt_bus" begin="1500" end="10800" period="1200" color="128,0,0" route="r1550-1">
    <stop busStop="b22296" duration="20" />
</flow>
<flow id="M4434" type="pt_bus" begin="1800" end="10800" period="1800" color="128,0,0" route="r1550-1">
    <stop busStop="b22296" duration="20" />
</flow>
<flow id="1551B" type="pt_bus" begin="1800" end="10800" period="2700" color="128,0,0" route="r1550-1">
    <stop busStop="b22296" duration="20" />
</flow>
<flow id="M5422" type="pt_bus" begin="1800" end="10800" period="1800" color="255,0,0" route="r440">
    <stop busStop="b22296" duration="20.00" />
</flow>
<flow id="M6462" type="pt_bus" begin="1920" end="10800" period="5400" color="128,0,0" route="r6">
    <stop busStop="b22296" duration="20.00" />
</flow>
<flow id="M6450" type="pt_bus" begin="2040" end="10800" period="1500" color="128,0,0" route="r6">
    <stop busStop="b22296" duration="20.00" />
</flow>
<flow id="M5443" type="pt_bus" begin="2460" end="10800" period="1800" color="128,0,0" route="r6">
    <stop busStop="b22296" duration="20.00" />
</flow>
<flow id="1311B" type="pt_bus" begin="2820" end="10800" period="3600" color="128,0,0" route="r1550-1">
    <stop busStop="b22296" duration="20" />
</flow>
<flow id="1552" type="pt_bus" begin="3900" end="10800" period="3600" color="128,0,0" route="r1550-1">
    <stop busStop="b22296" duration="20" />
</flow>


    <flow id="pt_subway_320:0" type="pt_subway" begin="15.00" line="320:0" route="pt_subway_320:0" end="3615.00" period="600.00">
        <param key="completeness" value="0.00"/>
        <param key="name" value="수도권 전철 신분당선: 광교 → 신사"/>
    </flow>
    <person id="ped10" type="ped_pedestrian" depart="121.34">
        <walk edges="375713453#5 375713453#6 1278041124#0 1278041124#1 1278041125 706733120#0 368417673#1"/>
    </person>
    <person id="ped30" type="ped_pedestrian" depart="364.01">
        <walk edges="914633664#0 1054611635#1 1054611634#1 1155678335 1155678334#0 1155678334#1 1151658559#3 1193442921#1 1193442921#0 370140661#0 370140660#3 370139892#0 315718279#5 315718281#0 315718281#1 315718281#2 315718281#3"/>
    </person>
    <person id="ped31" type="ped_pedestrian" depart="376.15">
        <walk edges="1278041127 368417671#2 368417671#1"/>
    </person>
    <flow id="pt_subway_326:0" type="pt_subway" begin="383.00" line="326:0" route="pt_subway_326:0" end="3983.00" period="600.00">
        <param key="completeness" value="0.00"/>
        <param key="name" value="수도권 전철 신분당선: 신사 → 광교"/>
    </flow>
    <person id="ped32" type="ped_pedestrian" depart="388.28">
        <walk edges="375713466#2 375713467 1278208842 1278208843#0 1278208843#1 1278208843#2 1278208843#3 1278041124#0 1278041124#1 1278041125 368417672 368417671#2 1278041127 1278041128 1278041129#0 375713446#0"/>
    </person>
    <person id="ped34" type="ped_pedestrian" depart="412.55">
        <walk edges="1054611642#1 1054611637#1 914633664#1 914633663 -914633663"/>
    </person>
    <person id="ped38" type="ped_pedestrian" depart="461.08">
        <walk edges="471685854#0 471685853#0 706733120#2 706733120#1 706733120#0 1278041125 1278041124#1 1278041124#0 1278208843#3 1278208843#2 1278208843#1 1278208843#0 1278208842 375713467 375713466#1 1187730920#1 1187730921"/>
    </person>
    <person id="ped43" type="ped_pedestrian" depart="521.75">
        <walk edges="914633664#4 -914633664#2 -914633664#1 1054611635#1 1054611634#1 1155678335 1155678334#0 1155678334#1 1151658559#3 1193442921#1 1193442921#0 370140661#0 370140660#2 370140660#1 1187732427 1187732083#1 1187732083#2 1187732083#3 1187732085#0 1187732087#0"/>
    </person>
    <person id="ped47" type="ped_pedestrian" depart="570.29">
        <walk edges="-1054939518#3 1054939520#0 -1054939503#8 1054939512"/>
    </person>
    <person id="ped48" type="ped_pedestrian" depart="582.42">
        <walk edges="914633664#3 -914633664#2 -914633664#1 1054611635#1 1054611634#1 1155678335 1155678334#0 1155678334#1 1151658559#3 1193442921#1 1193442922"/>
    </person>
    <person id="ped58" type="ped_pedestrian" depart="703.76">
        <walk edges="1054611629#0 1054611633#0 1054611633#1 1155678335 1155678334#0 1155678334#1 1151658559#3 1193442921#1 1193442921#0 370140661#0 370140660#3 370139892#0 315718279#5 315718281#0 315718281#1 315718281#2 315718281#3"/>
    </person>
    <person id="ped69" type="ped_pedestrian" depart="837.23">
        <walk edges="370150187 370150186#0 370150182 370150191#1 370139891#1 370150189#0 370150189#1 370139892#1 370139892#0 315718279#5 -315718281#0"/>
    </person>
    <person id="ped70" type="ped_pedestrian" depart="849.37">
        <walk edges="1187730928 375713455 1278208842 1278208843#0 1278208843#1 1278208843#2 1278208843#3 1278041124#0"/>
    </person>
    <person id="ped75" type="ped_pedestrian" depart="910.04">
        <walk edges="914633664#3 -914633664#2 -914633664#1 1054611635#1 1054611634#1 1155678335 1155678334#0 1155678334#1 1151658559#3 1193442921#1 1193442921#0 370140661#0 370140660#3 315718287#1"/>
    </person>
    <person id="ped76" type="ped_pedestrian" depart="922.17">
        <walk edges="1177540957 1151658559#1 1151658559#2 1193442921#1 1193442921#0 370140661#0 370140660#2 370140660#1 1187732427 1187732083#1 1187732083#2 1187732083#3 1187732085#0 1187732087#0 1187732089#0"/>
    </person>
    <person id="ped79" type="ped_pedestrian" depart="958.57">
        <walk edges="-432421582#1 432421580#1 -432421580#1"/>
    </person>
    <person id="ped81" type="ped_pedestrian" depart="982.84">
        <walk edges="-432421582#1 432421582#1"/>
    </person>
    <person id="ped86" type="ped_pedestrian" depart="1043.51">
        <walk edges="1187730927 375713454#0 1278208842 1278208843#0 1278208843#1 1278208843#2 1278208843#3 1278041124#0 1278041124#1 1278041125 368417672 368417671#2 368417671#3 368417674#3 375713449 375713447#3"/>
    </person>
    <person id="ped89" type="ped_pedestrian" depart="1079.91">
        <walk edges="1151658559#1 1151658559#2 1193442921#1 1193442922 1187730923#0 1187730924"/>
    </person>
    <person id="ped92" type="ped_pedestrian" depart="1116.31">
        <walk edges="1054939521 1054939503#4 1054939503#5 1054939503#8 1054939503#9 1054939503#10"/>
    </person>
    <person id="ped100" type="ped_pedestrian" depart="1213.38">
        <walk edges="769538138 1278208841 375713455 1278208842 1278208843#0 1278208843#1 1278208843#2 1278208843#3 1278041124#0 1278041124#1 471685858#3 471685858#2"/>
    </person>
    <person id="ped103" type="ped_pedestrian" depart="1249.78">
        <walk edges="1054939520#1 -1054939520#0 -1054939518#2 -1054939518#1"/>
    </person>
    <person id="ped117" type="ped_pedestrian" depart="1419.66">
        <walk edges="-522813046#2 -522813046#3 -282429544#3 -282429544#2 -282429544#0 79472446 -282429545#0"/>
    </person>
    <person id="ped125" type="ped_pedestrian" depart="1516.73">
        <walk edges="1054611642#1 1054611637#1 1054611635#1 1054611634#1 1155678335 1155678334#0 1155678334#1 1151658559#3 1193442921#1 1193442921#0 370140661#1"/>
    </person>
    <person id="ped130" type="ped_pedestrian" depart="1577.40">
        <walk edges="375975964 375713484#2 375713484#3 375713484#4 375713484#5 375713484#6 -375975963 375975963"/>
    </person>
    <person id="ped132" type="ped_pedestrian" depart="1601.66">
        <walk edges="375713465#0 1187729487#2 1187729487#1 1187729487#0 368417673#1 368417673#0 368417671#5 368417674#0 368417674#1 368417674#2"/>
    </person>
    <person id="ped144" type="ped_pedestrian" depart="1747.27">
        <walk edges="1151658559#1 1151658559#2 1151658559#3 1155678334#1 1155678334#0 1155678335 1054611634#1 1054611635#1 914633664#1 914633664#2 -914633664#4"/>
    </person>
    <person id="ped167" type="ped_pedestrian" depart="2026.35">
        <walk edges="375975959 375713484#2"/>
    </person>
    <person id="ped169" type="ped_pedestrian" depart="2050.61">
        <walk edges="1187730921 1187730920#1 375713466#1 375713467 1278208842 1278208843#0 1278208843#1 1278208843#2 1278208843#3 1278041124#0 1278041124#1 1278041125 706733120#0 706733120#1 706733120#2 471686108#0 1054611630#2"/>
    </person>
    <person id="ped176" type="ped_pedestrian" depart="2135.55">
        <walk edges="522813046#2 522813046#3 -282429544#3 -282429544#2"/>
    </person>
    <person id="ped180" type="ped_pedestrian" depart="2184.09">
        <walk edges="370139891#0 370139891#1 370150189#0 370150189#1 370139892#1 370140660#3 370140661#0 1193442921#0 1193442921#1 1151658559#3 1155678334#1 1155678334#0 1155678335 1054611634#1 1054611635#1 1054611637#1"/>
    </person>
    <person id="ped187" type="ped_pedestrian" depart="2269.02">
        <walk edges="1054939505#3 -1054939517#1 1054939518#0 1054939518#1 1054939518#2 1054939520#0 1054939520#1 -1054939520#1"/>
    </person>
    <person id="ped190" type="ped_pedestrian" depart="2305.42">
        <walk edges="370139887#0 370140660#2 370140661#0 1193442921#0 1193442921#1 1151658559#3 1155678334#1 1155678334#0 1155678335 1054611633#1 1054611633#0 1054611629#0 1054611629#1"/>
    </person>
    <person id="ped193" type="ped_pedestrian" depart="2341.83">
        <walk edges="-315718280#3 -315718280#1 315718289#1 315718289#0 315718287#4 315718287#5 315718287#1 370140660#3 370140661#0 1193442921#0 1193442921#1 1151658559#2 1168191053 1151658557#1 1151658558"/>
    </person>
    <person id="ped198" type="ped_pedestrian" depart="2402.50">
        <walk edges="1155678334#0 1155678334#1 1151658559#3 1193442921#1 1193442921#0 370140661#0 370140660#3 370139892#1 370150189#1 370150189#0 -370139891#1 -370139891#0 370150185#0 1324918735"/>
    </person>
    <person id="ped199" type="ped_pedestrian" depart="2414.63">
        <walk edges="315718287#4 315718287#5 315718287#1 370140660#3 370140661#0 1193442921#0 1193442922 1187730923#0 1187730923#1"/>
    </person>
    <person id="ped210" type="ped_pedestrian" depart="2548.10">
        <walk edges="1151658556 1151658557#0 1168191053 1151658559#2 1193442921#1 1193442921#0 370140661#0 370140660#3 315718287#1 315718287#5 315718287#4 315718289#0 315718289#1 315718280#1"/>
    </person>
    <person id="ped214" type="ped_pedestrian" depart="2596.64">
        <walk edges="370140661#1 370140661#0 370140660#3 370139892#1 370150189#1 370150189#0 -370139891#1 370150191#0"/>
    </person>
    <person id="ped219" type="ped_pedestrian" depart="2657.31">
        <walk edges="1187730920#0 1187730920#1 375713466#1 375713467 375713454#0 1187730927 375713453#1 375713453#2 375713453#3"/>
    </person>
    <person id="ped221" type="ped_pedestrian" depart="2681.57">
        <walk edges="282429540 282429544#0 282429544#2 282429544#3 -522813046#3 -522813046#2 -522813046#1 -522813046#0 -523141072#2 523141072#1"/>
    </person>
    <person id="ped228" type="ped_pedestrian" depart="2766.51">
        <walk edges="370150187 370150186#1 1187732082#0 1187732087#2 1187732087#1 1187732089#0 1187732090"/>
    </person>
    <person id="ped229" type="ped_pedestrian" depart="2778.64">
        <walk edges="315718280#0 315718279#3 315718279#4 315718279#5 370139892#0 370140660#3 370140661#0 1193442921#0 1193442921#1 1151658559#3 1155678334#1 1155678334#0 1155678335 1054611634#1 1054611635#1 914633664#1 914633664#2 -914633664#2"/>
    </person>
    <person id="ped243" type="ped_pedestrian" depart="2948.52">
        <walk edges="1151658557#1 1168191053 1151658559#2 1193442921#1 1193442921#0 370140661#0 370140660#3"/>
    </person>
    <person id="ped245" type="ped_pedestrian" depart="2972.78">
        <walk edges="-432421580#2 -432421580#1"/>
    </person>
    <person id="ped249" type="ped_pedestrian" depart="3021.32">
        <walk edges="1187730924 1187730923#0 1193442922 1193442921#0 370140661#0 370140660#3 315718287#1 315718287#5 315718287#4 315718289#0 315718289#1 315718280#1 -315718280#3"/>
    </person>
    <person id="ped254" type="ped_pedestrian" depart="3081.99">
        <walk edges="-1054939510#0 1054939510#1"/>
    </person>
    <person id="ped262" type="ped_pedestrian" depart="3179.06">
        <walk edges="315718287#2 315718287#1 370139892#1 370150189#1 370150189#0 -370139891#1 370150191#1 370150182 370150186#0 370150186#1 370150181#1"/>
    </person>
    <person id="ped270" type="ped_pedestrian" depart="3276.13">
        <walk edges="375713456 1278208843#0 1278208843#1 1278208843#2 1278208843#3 1278041124#0 1278041124#1 471685858#3 471685858#2 471685858#1 706733122"/>
    </person>
    <person id="ped289" type="ped_pedestrian" depart="3506.67">
        <walk edges="1168191053 1151658559#2 1193442921#1 1193442921#0 370140661#0 370140660#3 370139892#1 370150189#1 370150189#0 370139891#1"/>
    </person>
    <person id="ped291" type="ped_pedestrian" depart="3530.94">
        <walk edges="375713462#1 375713460#2 375713453#5 375713453#6 1278041124#0 1278041124#1 1278041125 368417672 368417671#2 1278041127 1278041128 1278041129#0 -1278041129#0"/>
    </person>
    <person id="ped294" type="ped_pedestrian" depart="3567.34">
        <walk edges="1054939510#1 1054939518#1 1054939518#2 1054939518#3 1054939503#10 1054939503#11 1054939503#12 -1054939504#0"/>
    </person>
    <person id="ped295" type="ped_pedestrian" depart="3579.48">
        <walk edges="375713483#0 -375713485 375713484#1 375713484#2 -375713484#3"/>
    </person>
</routes>
